 ****** HSPICE -- H-2013.03 64-BIT (Mar  7 2013) win64 ******                   
  Copyright (C) 2013 Synopsys, Inc. All Rights Reserved.                        
  Unpublished-rights reserved under US copyright laws.
  This program is protected by law and is subject to the
  terms and conditions of the license agreement from Synopsys.
  Use of this program is your acceptance to be bound by the
  license agreement. HSPICE is the trademark of Synopsys, Inc.
  Input File: sramusing3t10nm.sp                                                
  Command line options: -i sramusing3t10nm.sp -o sramusing3t10nm.lis
  lic:  
  lic: FLEXlm: v10.9.8 
  lic: USER:   Dell                 HOSTNAME: DESKTOP-O3DHVG1 
  lic: HOSTID: "28f10e041fd4 a0d37a293ca4 a0d37a293ca5" PID:      112 
  lic: Using FLEXlm license file: 
  lic: C:\synopsys\Hspice_H-2013.03\lic.dat\lic.lic 
  lic: Checkout 1 hspice 
  lic: License/Maintenance for hspice will expire on 31-dec-2019/2019.12 
  lic: NODE LOCKED license on hostid "28f10e041fd4 a0d37a293ca4 a0d37a293ca5" 
  lic:   
 Init: read install configuration file: C:\synopsys\Hspice_H-2013.03\meta.cfg
 scientific notation:
 a=10**-18  f=10**-15  p=10**-12  n=10**-9  u=10**-6
 m=10**-3   k=10**3    x=10**6    g=10**9 
1****** HSPICE -- H-2013.03 64-BIT (Mar  7 2013) win64 ******                   
 ******  
 'inverter'

  ******  circuit name directory
 circuit number to circuit name directory
   number circuitname                     definition         multiplier
        0 main circuit


 circuit parameter definitions
  parameter          =  value 

     0:temp                                                    = 2.700e+01      
     0:m_cnt                                                   = 1.000e+00      
     0:wg                                                      = 4.000e-09      
     0:cb                                                      = 4.000e-11      
     0:lg                                                      = 1.000e-08      
     0:lgef                                                    = 1.000e-07      
     0:vfn                                                     = 0.000e+00      
     0:vfp                                                     = 0.000e+00      
     0:m                                                       = 0.000e+00      
     0:n                                                       = 1.900e+01      
     0:hox                                                     = 4.000e-09      
     1:tox                                                     = 4.000e-09      
     1:csub                                                    = 4.000e-11      
     1:pitch                                                   = 2.000e-08      
     1:n1                                                      = 0.000e+00      
     1:n2                                                      = 9.000e+00      
     1:vfbp                                                    = 0.000e+00      
     1:kgate                                                   = 1.600e+01      
     1:dout                                                    = 0.000e+00      
     1:sout                                                    = 0.000e+00      
     1:tubes                                                   = 8.000e+00      
     1:lg                                                      = 3.200e-08      
     1:lch                                                     = 3.200e-08      
     1:lgeff                                                   = 1.000e-07      
     1:lss                                                     = 3.200e-08      
     1:ldd                                                     = 3.200e-08      
     2:tox                                                     = 4.000e-09      
     2:csub                                                    = 4.000e-11      
     2:vfbn                                                    = 0.000e+00      
     2:pitch                                                   = 2.000e-08      
     2:n1                                                      = 0.000e+00      
     2:n2                                                      = 9.000e+00      
     2:kgate                                                   = 1.600e+01      
     2:dout                                                    = 0.000e+00      
     2:sout                                                    = 0.000e+00      
     2:tubes                                                   = 2.000e+01      
     2:lg                                                      = 3.200e-08      
     2:lch                                                     = 3.200e-08      
     2:lgeff                                                   = 1.000e-07      
     2:lss                                                     = 3.200e-08      
     2:ldd                                                     = 3.200e-08      
     3:tox                                                     = 4.000e-09      
     3:csub                                                    = 4.000e-11      
     3:vfbn                                                    = 0.000e+00      
     3:pitch                                                   = 2.000e-08      
     3:n1                                                      = 0.000e+00      
     3:n2                                                      = 1.100e+01      
     3:kgate                                                   = 1.600e+01      
     3:dout                                                    = 0.000e+00      
     3:sout                                                    = 0.000e+00      
     3:tubes                                                   = 2.000e+00      
     3:lg                                                      = 6.400e-08      
     3:lch                                                     = 6.400e-08      
     3:lgeff                                                   = 1.000e-07      
     3:lss                                                     = 3.200e-08      
     3:ldd                                                     = 3.200e-08      
     6:tox                                                     = 4.000e-09      
     6:csub                                                    = 4.000e-11      
     6:vfbn                                                    = 0.000e+00      
     6:pitch                                                   = 2.000e-08      
     6:n1                                                      = 0.000e+00      
     6:n2                                                      = 1.100e+01      
     6:kgate                                                   = 1.600e+01      
     6:dout                                                    = 0.000e+00      
     6:sout                                                    = 0.000e+00      
     6:tubes                                                   = 2.000e+00      
     6:lg                                                      = 6.400e-08      
     6:lch                                                     = 6.400e-08      
     6:lgeff                                                   = 1.000e-07      
     6:lss                                                     = 3.200e-08      
     6:ldd                                                     = 3.200e-08      
     7:tox                                                     = 4.000e-09      
     7:csub                                                    = 4.000e-11      
     7:pitch                                                   = 2.000e-08      
     7:n1                                                      = 0.000e+00      
     7:n2                                                      = 1.900e+01      
     7:vfbp                                                    = 0.000e+00      
     7:kgate                                                   = 1.600e+01      
     7:dout                                                    = 0.000e+00      
     7:sout                                                    = 0.000e+00      
     7:tubes                                                   = 1.000e+00      
     7:lch                                                     = 1.000e-08      
     7:lgeff                                                   = 1.000e-07      
     7:lss                                                     = 3.200e-08      
     7:ldd                                                     = 3.200e-08      
     8:tox                                                     = 4.000e-09      
     8:csub                                                    = 4.000e-11      
     8:vfbn                                                    = 0.000e+00      
     8:pitch                                                   = 2.000e-08      
     8:n1                                                      = 0.000e+00      
     8:n2                                                      = 1.900e+01      
     8:kgate                                                   = 1.600e+01      
     8:dout                                                    = 0.000e+00      
     8:sout                                                    = 0.000e+00      
     8:tubes                                                   = 1.000e+00      
     8:lch                                                     = 1.000e-08      
     8:lgeff                                                   = 1.000e-07      
     8:lss                                                     = 3.200e-08      
     8:ldd                                                     = 3.200e-08      
     9:tox                                                     = 4.000e-09      
     9:csub                                                    = 4.000e-11      
     9:pitch                                                   = 2.000e-08      
     9:n1                                                      = 0.000e+00      
     9:n2                                                      = 1.000e+01      
     9:vfbp                                                    = 0.000e+00      
     9:kgate                                                   = 1.600e+01      
     9:dout                                                    = 0.000e+00      
     9:sout                                                    = 0.000e+00      
     9:tubes                                                   = 1.000e+00      
     9:lch                                                     = 1.000e-08      
     9:lgeff                                                   = 1.000e-07      
     9:lss                                                     = 3.200e-08      
     9:ldd                                                     = 3.200e-08      
    10:tox                                                     = 4.000e-09      
    10:csub                                                    = 4.000e-11      
    10:vfbn                                                    = 0.000e+00      
    10:pitch                                                   = 2.000e-08      
    10:n1                                                      = 0.000e+00      
    10:n2                                                      = 1.000e+01      
    10:kgate                                                   = 1.600e+01      
    10:dout                                                    = 0.000e+00      
    10:sout                                                    = 0.000e+00      
    10:tubes                                                   = 1.000e+00      
    10:lch                                                     = 1.000e-08      
    10:lgeff                                                   = 1.000e-07      
    10:lss                                                     = 3.200e-08      
    10:ldd                                                     = 3.200e-08      




 constants  - tnom         kt           vt           gapsi        ni
            2.9815e+02   4.1163e-21   2.5692e-02   1.1156e+00   1.2565e+16 
  **info** (sramusing3t10nm.sp:113) DC voltage reset to initial transient source value              in source        0:vrwl                new dc=  0.0000D+00

 **warning**  associated with encrypted block(s) were suppressed due to encrypted content

1****** HSPICE -- H-2013.03 64-BIT (Mar  7 2013) win64 ******                   
 ******  
 'inverter'

  ******  circuit element summary tnom=  25.000 temp=  25.000 *****


 **** independent sources

     name         node1        node2      dc volt    ac mag    ac phase    type
  vdd  vdd               0                  9.000e-01  0.000e+00  0.000e+00 dc   
  vddl  vddl              0                  4.500e-01  0.000e+00  0.000e+00 dc   
  vrwl  rwl               0                  0.000e+00  0.000e+00  0.000e+00 pwl  
                time        value

                 0.000e+00    0.000e+00
                 1.250e-08    0.000e+00
                 1.260e-08    9.000e-01
                 1.500e-08    9.000e-01
                 1.510e-08    0.000e+00
                 2.250e-08    0.000e+00
                 2.260e-08    9.000e-01
                 2.500e-08    9.000e-01
                 2.510e-08    0.000e+00
                 3.250e-08    0.000e+00
                 3.260e-08    9.000e-01
                 3.500e-08    9.000e-01


  vrwlb  rwlb              0                  9.000e-01  0.000e+00  0.000e+00 pwl  
                time        value

                 0.000e+00    9.000e-01
                 1.250e-08    9.000e-01
                 1.260e-08    0.000e+00
                 1.500e-08    0.000e+00
                 1.510e-08    9.000e-01
                 2.250e-08    9.000e-01
                 2.260e-08    0.000e+00
                 2.500e-08    0.000e+00
                 2.510e-08    9.000e-01
                 3.250e-08    9.000e-01
                 3.260e-08    0.000e+00
                 3.500e-08    0.000e+00


  vwbl  wbl               0                  0.000e+00  0.000e+00  0.000e+00 pwl  
                time        value

                 0.000e+00    0.000e+00
                 5.000e-09    0.000e+00
                 5.100e-09    4.500e-01
                 1.000e-08    4.500e-01
                 1.010e-08    0.000e+00
                 1.500e-08    0.000e+00
                 1.510e-08    9.000e-01
                 2.000e-08    9.000e-01
                 2.010e-08    0.000e+00
                 3.000e-08    0.000e+00
                 4.000e-08    0.000e+00


  vwwl  wwl               0                  0.000e+00  0.000e+00  0.000e+00 pwl  
                time        value

                 0.000e+00    0.000e+00
                 7.500e-09    0.000e+00
                 7.600e-09    9.000e-01
                 1.000e-08    9.000e-01
                 1.010e-08    0.000e+00
                 1.750e-08    0.000e+00
                 1.760e-08    9.000e-01
                 2.000e-08    9.000e-01
                 2.010e-08    0.000e+00
                 2.750e-08    0.000e+00
                 2.760e-08    9.000e-01
                 3.000e-08    9.000e-01
                 3.010e-08    0.000e+00
                 4.000e-08    0.000e+00


  vwwlb  wwlb              0                  9.000e-01  0.000e+00  0.000e+00 pwl  
                time        value

                 0.000e+00    9.000e-01
                 7.500e-09    9.000e-01
                 7.600e-09    0.000e+00
                 1.000e-08    0.000e+00
                 1.010e-08    9.000e-01
                 1.750e-08    9.000e-01
                 1.760e-08    0.000e+00
                 2.000e-08    0.000e+00
                 2.010e-08    9.000e-01
                 2.750e-08    9.000e-01
                 2.760e-08    0.000e+00
                 3.000e-08    0.000e+00
                 3.010e-08    9.000e-01
                 4.000e-08    9.000e-01




 **** subcircuit calls
    name        subcircuit         external nodes


         0:xcnt1    pcnfet          0:vdd         0:q           0:qb      
                               0:qb      


         0:xcnt2    ncnfet          0:qb          0:q           0:0       
                               0:0       


         0:xcnt3    ncnfet          0:qb          0:vdd         0:vddl    
                               0:vddl    


         0:xcnt4    pcnfet          0:vdd         0:qb          0:q       
                               0:q       


         0:xcnt5    ncnfet          0:q           0:qb          0:0       
                               0:0       


         0:xcnt6    ncnfet          0:q           0:vdd         0:vddl    
                               0:vddl    


         0:xcnt22   pcnfet          0:q           0:wwlb        0:wbl     
                               0:wbl     


         0:xcnt11   ncnfet          0:wbl         0:wwl         0:q       
                               0:q       


         0:xcnt16   pcnfet          0:vdd         0:qb          0:n5      
                               0:n5      


         0:xcnt15   ncnfet          0:n5          0:qb          0:0       
                               0:0       


         0:xcnt18   pcnfet          0:rbl         0:rwlb        0:n5      
                               0:n5      


         0:xcnt17   ncnfet          0:n5          0:rwl         0:rbl     
                               0:rbl     


  
1****** HSPICE -- H-2013.03 64-BIT (Mar  7 2013) win64 ******                   
 ******  
 'inverter'

  ******  element node table
                                                                                      
 0                vdd              vddl             vrwl             vrwlb            
                  vwbl             vwwl             vwwlb                             
 rwl              vrwl                                                                
 rwlb             vrwlb                                                               
 vdd              vdd                                                                 
 vddl             vddl                                                                
 wbl              vwbl                                                                
 wwl              vwwl                                                                
 wwlb             vwwlb                                                               
  **warning** PIVOT option setting is simplified, pivot = 13 is obsolete,
              automatically switch to pivot = 1.
 *****************************************************************
 ******  option summary
 ******
 runlvl  = 3         bypass  = 2         
  Opening plot unit= 79
 file=sramusing3t10nm.pa0

1****** HSPICE -- H-2013.03 64-BIT (Mar  7 2013) win64 ******                   
 ******  
 'inverter'

  ******  operating point information tnom=  25.000 temp=  25.000 *****
 ***** operating point status is voltage   simulation time is   0.000e+00
     node    =voltage       node    =voltage       node    =voltage

 + 0:n5      = 8.554e-01  0:q       = 4.462e-01  0:qb      = 4.462e-01
 + 0:rbl     = 2.895e-03  0:rwl     = 0.000e+00  0:rwlb    = 9.000e-01
 + 0:vdd     = 9.000e-01  0:vddl    = 4.500e-01  0:wbl     = 0.000e+00
 + 0:wwl     = 0.000e+00  0:wwlb    = 9.000e-01

 ******  
 'inverter'

  ******  transient analysis tnom=  25.000 temp=  25.000 *****
x

        time    voltage      voltage      voltage    
                     q           qb           rbl    
  0.0000e+00    4.462e-01    4.462e-01    2.895e-03  
  1.0000e-10    4.462e-01    4.462e-01    2.895e-03  
  2.0000e-10    4.462e-01    4.462e-01    2.895e-03  
  3.0000e-10    4.462e-01    4.462e-01    2.895e-03  
  4.0000e-10    4.462e-01    4.462e-01    2.895e-03  
  5.0000e-10    4.462e-01    4.462e-01    2.895e-03  
  6.0000e-10    4.462e-01    4.462e-01    2.895e-03  
  7.0000e-10    4.462e-01    4.462e-01    2.895e-03  
  8.0000e-10    4.462e-01    4.462e-01    2.895e-03  
  9.0000e-10    4.462e-01    4.462e-01    2.895e-03  
  1.0000e-09    4.462e-01    4.462e-01    2.895e-03  
  1.1000e-09    4.462e-01    4.462e-01    2.895e-03  
  1.2000e-09    4.462e-01    4.462e-01    2.895e-03  
  1.3000e-09    4.462e-01    4.462e-01    2.895e-03  
  1.4000e-09    4.462e-01    4.462e-01    2.895e-03  
  1.5000e-09    4.462e-01    4.462e-01    2.895e-03  
  1.6000e-09    4.462e-01    4.462e-01    2.895e-03  
  1.7000e-09    4.462e-01    4.462e-01    2.895e-03  
  1.8000e-09    4.462e-01    4.462e-01    2.895e-03  
  1.9000e-09    4.462e-01    4.462e-01    2.895e-03  
  2.0000e-09    4.462e-01    4.462e-01    2.895e-03  
  2.1000e-09    4.462e-01    4.462e-01    2.895e-03  
  2.2000e-09    4.462e-01    4.462e-01    2.895e-03  
  2.3000e-09    4.462e-01    4.462e-01    2.895e-03  
  2.4000e-09    4.462e-01    4.462e-01    2.895e-03  
  2.5000e-09    4.462e-01    4.462e-01    2.895e-03  
  2.6000e-09    4.462e-01    4.462e-01    2.895e-03  
  2.7000e-09    4.462e-01    4.462e-01    2.895e-03  
  2.8000e-09    4.462e-01    4.462e-01    2.895e-03  
  2.9000e-09    4.462e-01    4.462e-01    2.895e-03  
  3.0000e-09    4.462e-01    4.462e-01    2.895e-03  
  3.1000e-09    4.462e-01    4.462e-01    2.895e-03  
  3.2000e-09    4.462e-01    4.462e-01    2.895e-03  
  3.3000e-09    4.462e-01    4.462e-01    2.895e-03  
  3.4000e-09    4.462e-01    4.462e-01    2.895e-03  
  3.5000e-09    4.462e-01    4.462e-01    2.895e-03  
  3.6000e-09    4.462e-01    4.462e-01    2.895e-03  
  3.7000e-09    4.462e-01    4.462e-01    2.895e-03  
  3.8000e-09    4.462e-01    4.462e-01    2.895e-03  
  3.9000e-09    4.462e-01    4.462e-01    2.895e-03  
  4.0000e-09    4.462e-01    4.462e-01    2.895e-03  
  4.1000e-09    4.462e-01    4.462e-01    2.895e-03  
  4.2000e-09    4.462e-01    4.462e-01    2.895e-03  
  4.3000e-09    4.462e-01    4.462e-01    2.895e-03  
  4.4000e-09    4.462e-01    4.462e-01    2.895e-03  
  4.5000e-09    4.462e-01    4.462e-01    2.895e-03  
  4.6000e-09    4.462e-01    4.462e-01    2.895e-03  
  4.7000e-09    4.462e-01    4.462e-01    2.895e-03  
  4.8000e-09    4.462e-01    4.462e-01    2.895e-03  
  4.9000e-09    4.462e-01    4.462e-01    2.895e-03  
  5.0000e-09    4.462e-01    4.462e-01    2.895e-03  
  5.1000e-09    4.538e-01    4.461e-01    2.846e-03  
  5.2000e-09    4.478e-01    4.454e-01    2.858e-03  
  5.3000e-09    4.467e-01    4.458e-01    2.974e-03  
  5.4000e-09    4.461e-01    4.463e-01    3.082e-03  
  5.5000e-09    4.462e-01    4.463e-01    3.073e-03  
  5.6000e-09    4.462e-01    4.463e-01    3.062e-03  
  5.7000e-09    4.463e-01    4.462e-01    3.055e-03  
  5.8000e-09    4.463e-01    4.462e-01    3.058e-03  
  5.9000e-09    4.462e-01    4.462e-01    3.062e-03  
  6.0000e-09    4.462e-01    4.462e-01    3.065e-03  
  6.1000e-09    4.462e-01    4.462e-01    3.069e-03  
  6.2000e-09    4.462e-01    4.462e-01    3.069e-03  
  6.3000e-09    4.462e-01    4.462e-01    3.064e-03  
  6.4000e-09    4.462e-01    4.462e-01    3.059e-03  
  6.5000e-09    4.462e-01    4.462e-01    3.054e-03  
  6.6000e-09    4.462e-01    4.462e-01    3.048e-03  
  6.7000e-09    4.462e-01    4.462e-01    3.043e-03  
  6.8000e-09    4.462e-01    4.462e-01    3.038e-03  
  6.9000e-09    4.462e-01    4.462e-01    3.033e-03  
  7.0000e-09    4.463e-01    4.462e-01    3.028e-03  
  7.1000e-09    4.463e-01    4.463e-01    3.023e-03  
  7.2000e-09    4.463e-01    4.462e-01    3.018e-03  
  7.3000e-09    4.462e-01    4.462e-01    3.012e-03  
  7.4000e-09    4.462e-01    4.462e-01    3.007e-03  
  7.5000e-09    4.462e-01    4.462e-01    3.001e-03  
  7.6000e-09    4.540e-01    4.462e-01    2.981e-03  
  7.7000e-09    4.483e-01    4.454e-01    2.960e-03  
  7.8000e-09    4.469e-01    4.459e-01    3.102e-03  
  7.9000e-09    4.469e-01    4.461e-01    3.141e-03  
  8.0000e-09    4.469e-01    4.462e-01    3.175e-03  
  8.1000e-09    4.469e-01    4.462e-01    3.172e-03  
  8.2000e-09    4.469e-01    4.461e-01    3.168e-03  
  8.3000e-09    4.469e-01    4.461e-01    3.165e-03  
  8.4000e-09    4.469e-01    4.461e-01    3.172e-03  
  8.5000e-09    4.469e-01    4.461e-01    3.181e-03  
  8.6000e-09    4.469e-01    4.461e-01    3.191e-03  
  8.7000e-09    4.469e-01    4.461e-01    3.200e-03  
  8.8000e-09    4.469e-01    4.461e-01    3.209e-03  
  8.9000e-09    4.469e-01    4.462e-01    3.219e-03  
  9.0000e-09    4.469e-01    4.462e-01    3.225e-03  
  9.1000e-09    4.469e-01    4.462e-01    3.223e-03  
  9.2000e-09    4.469e-01    4.462e-01    3.222e-03  
  9.3000e-09    4.469e-01    4.461e-01    3.220e-03  
  9.4000e-09    4.469e-01    4.461e-01    3.219e-03  
  9.5000e-09    4.469e-01    4.461e-01    3.217e-03  
  9.6000e-09    4.469e-01    4.461e-01    3.216e-03  
  9.7000e-09    4.469e-01    4.461e-01    3.214e-03  
  9.8000e-09    4.469e-01    4.461e-01    3.213e-03  
  9.9000e-09    4.469e-01    4.461e-01    3.211e-03  
  1.0000e-08    4.469e-01    4.461e-01    3.209e-03  
  1.0100e-08    4.335e-01    4.464e-01    3.280e-03  
  1.0200e-08    4.436e-01    4.476e-01    3.287e-03  
  1.0300e-08    4.459e-01    4.468e-01    3.061e-03  
  1.0400e-08    4.461e-01    4.463e-01    2.936e-03  
  1.0500e-08    4.462e-01    4.462e-01    2.923e-03  
  1.0600e-08    4.462e-01    4.463e-01    2.930e-03  
  1.0700e-08    4.462e-01    4.463e-01    2.929e-03  
  1.0800e-08    4.462e-01    4.463e-01    2.919e-03  
  1.0900e-08    4.462e-01    4.462e-01    2.910e-03  
  1.1000e-08    4.462e-01    4.462e-01    2.900e-03  
  1.1100e-08    4.462e-01    4.462e-01    2.890e-03  
  1.1200e-08    4.462e-01    4.462e-01    2.892e-03  
  1.1300e-08    4.462e-01    4.462e-01    2.893e-03  
  1.1400e-08    4.462e-01    4.462e-01    2.895e-03  
  1.1500e-08    4.462e-01    4.462e-01    2.897e-03  
  1.1600e-08    4.462e-01    4.462e-01    2.898e-03  
  1.1700e-08    4.462e-01    4.462e-01    2.900e-03  
  1.1800e-08    4.462e-01    4.463e-01    2.901e-03  
  1.1900e-08    4.462e-01    4.463e-01    2.903e-03  
  1.2000e-08    4.462e-01    4.463e-01    2.905e-03  
  1.2100e-08    4.462e-01    4.463e-01    2.906e-03  
  1.2200e-08    4.462e-01    4.463e-01    2.906e-03  
  1.2300e-08    4.462e-01    4.463e-01    2.902e-03  
  1.2400e-08    4.462e-01    4.462e-01    2.897e-03  
  1.2500e-08    4.462e-01    4.462e-01    2.893e-03  
  1.2600e-08    4.460e-01    4.439e-01    5.849e-01  
  1.2700e-08    4.464e-01    4.458e-01    6.295e-01  
  1.2800e-08    4.463e-01    4.461e-01    6.320e-01  
  1.2900e-08    4.462e-01    4.462e-01    6.344e-01  
  1.3000e-08    4.462e-01    4.463e-01    6.368e-01  
  1.3100e-08    4.462e-01    4.463e-01    6.391e-01  
  1.3200e-08    4.462e-01    4.463e-01    6.414e-01  
  1.3300e-08    4.462e-01    4.463e-01    6.438e-01  
  1.3400e-08    4.462e-01    4.463e-01    6.461e-01  
  1.3500e-08    4.462e-01    4.463e-01    6.484e-01  
  1.3600e-08    4.462e-01    4.463e-01    6.506e-01  
  1.3700e-08    4.462e-01    4.463e-01    6.528e-01  
  1.3800e-08    4.462e-01    4.463e-01    6.550e-01  
  1.3900e-08    4.462e-01    4.463e-01    6.573e-01  
  1.4000e-08    4.462e-01    4.463e-01    6.595e-01  
  1.4100e-08    4.462e-01    4.463e-01    6.617e-01  
  1.4200e-08    4.462e-01    4.463e-01    6.639e-01  
  1.4300e-08    4.462e-01    4.463e-01    6.661e-01  
  1.4400e-08    4.462e-01    4.463e-01    6.683e-01  
  1.4500e-08    4.462e-01    4.463e-01    6.705e-01  
  1.4600e-08    4.462e-01    4.463e-01    6.727e-01  
  1.4700e-08    4.462e-01    4.463e-01    6.748e-01  
  1.4800e-08    4.462e-01    4.463e-01    6.769e-01  
  1.4900e-08    4.462e-01    4.463e-01    6.789e-01  
  1.5000e-08    4.462e-01    4.463e-01    6.810e-01  
  1.5100e-08    4.619e-01    4.466e-01    6.244e-01  
  1.5200e-08    4.502e-01    4.445e-01    6.249e-01  
  1.5300e-08    4.463e-01    4.455e-01    6.257e-01  
  1.5400e-08    4.463e-01    4.460e-01    6.263e-01  
  1.5500e-08    4.463e-01    4.464e-01    6.269e-01  
  1.5600e-08    4.463e-01    4.463e-01    6.273e-01  
  1.5700e-08    4.462e-01    4.462e-01    6.277e-01  
  1.5800e-08    4.462e-01    4.462e-01    6.282e-01  
  1.5900e-08    4.462e-01    4.462e-01    6.286e-01  
  1.6000e-08    4.462e-01    4.462e-01    6.290e-01  
  1.6100e-08    4.463e-01    4.463e-01    6.295e-01  
  1.6200e-08    4.463e-01    4.463e-01    6.299e-01  
  1.6300e-08    4.463e-01    4.463e-01    6.302e-01  
  1.6400e-08    4.463e-01    4.463e-01    6.305e-01  
  1.6500e-08    4.463e-01    4.463e-01    6.309e-01  
  1.6600e-08    4.463e-01    4.463e-01    6.312e-01  
  1.6700e-08    4.462e-01    4.463e-01    6.315e-01  
  1.6800e-08    4.462e-01    4.462e-01    6.318e-01  
  1.6900e-08    4.462e-01    4.462e-01    6.321e-01  
  1.7000e-08    4.462e-01    4.462e-01    6.325e-01  
  1.7100e-08    4.462e-01    4.462e-01    6.328e-01  
  1.7200e-08    4.462e-01    4.462e-01    6.331e-01  
  1.7300e-08    4.462e-01    4.462e-01    6.334e-01  
  1.7400e-08    4.462e-01    4.462e-01    6.337e-01  
  1.7500e-08    4.463e-01    4.463e-01    6.339e-01  
  1.7600e-08    8.565e-01    5.440e-02    6.607e-01  
  1.7700e-08    8.991e-01    4.909e-02    6.790e-01  
  1.7800e-08    8.991e-01    4.913e-02    6.788e-01  
  1.7900e-08    8.991e-01    4.910e-02    6.786e-01  
  1.8000e-08    8.991e-01    4.907e-02    6.785e-01  
  1.8100e-08    8.991e-01    4.908e-02    6.783e-01  
  1.8200e-08    8.991e-01    4.910e-02    6.781e-01  
  1.8300e-08    8.991e-01    4.911e-02    6.780e-01  
  1.8400e-08    8.991e-01    4.912e-02    6.778e-01  
  1.8500e-08    8.991e-01    4.913e-02    6.777e-01  
  1.8600e-08    8.991e-01    4.914e-02    6.775e-01  
  1.8700e-08    8.991e-01    4.914e-02    6.773e-01  
  1.8800e-08    8.991e-01    4.913e-02    6.772e-01  
  1.8900e-08    8.991e-01    4.913e-02    6.770e-01  
  1.9000e-08    8.991e-01    4.912e-02    6.768e-01  
  1.9100e-08    8.991e-01    4.912e-02    6.767e-01  
  1.9200e-08    8.991e-01    4.911e-02    6.765e-01  
  1.9300e-08    8.991e-01    4.910e-02    6.763e-01  
  1.9400e-08    8.991e-01    4.910e-02    6.762e-01  
  1.9500e-08    8.991e-01    4.909e-02    6.760e-01  
  1.9600e-08    8.991e-01    4.909e-02    6.758e-01  
  1.9700e-08    8.991e-01    4.908e-02    6.756e-01  
  1.9800e-08    8.991e-01    4.908e-02    6.755e-01  
  1.9900e-08    8.991e-01    4.907e-02    6.753e-01  
  2.0000e-08    8.991e-01    4.907e-02    6.751e-01  
  2.0100e-08    8.843e-01    4.896e-02    6.750e-01  
  2.0200e-08    8.815e-01    4.981e-02    6.748e-01  
  2.0300e-08    8.815e-01    4.979e-02    6.747e-01  
  2.0400e-08    8.815e-01    4.980e-02    6.745e-01  
  2.0500e-08    8.815e-01    4.981e-02    6.743e-01  
  2.0600e-08    8.815e-01    4.981e-02    6.742e-01  
  2.0700e-08    8.815e-01    4.981e-02    6.740e-01  
  2.0800e-08    8.815e-01    4.981e-02    6.738e-01  
  2.0900e-08    8.815e-01    4.980e-02    6.737e-01  
  2.1000e-08    8.815e-01    4.980e-02    6.735e-01  
  2.1100e-08    8.815e-01    4.980e-02    6.733e-01  
  2.1200e-08    8.815e-01    4.979e-02    6.732e-01  
  2.1300e-08    8.815e-01    4.979e-02    6.730e-01  
  2.1400e-08    8.815e-01    4.979e-02    6.728e-01  
  2.1500e-08    8.815e-01    4.979e-02    6.727e-01  
  2.1600e-08    8.815e-01    4.979e-02    6.725e-01  
  2.1700e-08    8.815e-01    4.980e-02    6.724e-01  
  2.1800e-08    8.815e-01    4.980e-02    6.722e-01  
  2.1900e-08    8.815e-01    4.980e-02    6.720e-01  
  2.2000e-08    8.815e-01    4.980e-02    6.719e-01  
  2.2100e-08    8.815e-01    4.980e-02    6.717e-01  
  2.2200e-08    8.815e-01    4.981e-02    6.715e-01  
  2.2300e-08    8.815e-01    4.981e-02    6.714e-01  
  2.2400e-08    8.815e-01    4.981e-02    6.712e-01  
  2.2500e-08    8.815e-01    4.981e-02    6.710e-01  
  2.2600e-08    8.815e-01    4.980e-02    8.954e-01  
  2.2700e-08    8.815e-01    4.980e-02    9.000e-01  
  2.2800e-08    8.815e-01    4.980e-02    9.000e-01  
  2.2900e-08    8.815e-01    4.980e-02    9.000e-01  
  2.3000e-08    8.815e-01    4.980e-02    9.000e-01  
  2.3100e-08    8.815e-01    4.980e-02    9.000e-01  
  2.3200e-08    8.815e-01    4.980e-02    9.000e-01  
  2.3300e-08    8.815e-01    4.980e-02    9.000e-01  
  2.3400e-08    8.815e-01    4.980e-02    9.000e-01  
  2.3500e-08    8.815e-01    4.980e-02    9.000e-01  
  2.3600e-08    8.815e-01    4.980e-02    9.000e-01  
  2.3700e-08    8.815e-01    4.980e-02    9.000e-01  
  2.3800e-08    8.815e-01    4.980e-02    9.000e-01  
  2.3900e-08    8.815e-01    4.980e-02    9.000e-01  
  2.4000e-08    8.815e-01    4.980e-02    9.000e-01  
  2.4100e-08    8.815e-01    4.980e-02    9.000e-01  
  2.4200e-08    8.815e-01    4.980e-02    9.000e-01  
  2.4300e-08    8.815e-01    4.980e-02    9.000e-01  
  2.4400e-08    8.815e-01    4.980e-02    9.000e-01  
  2.4500e-08    8.815e-01    4.980e-02    9.000e-01  
  2.4600e-08    8.815e-01    4.980e-02    9.000e-01  
  2.4700e-08    8.815e-01    4.980e-02    9.000e-01  
  2.4800e-08    8.815e-01    4.980e-02    9.000e-01  
  2.4900e-08    8.815e-01    4.980e-02    9.000e-01  
  2.5000e-08    8.815e-01    4.980e-02    9.000e-01  
  2.5100e-08    8.815e-01    4.980e-02    7.990e-01  
  2.5200e-08    8.815e-01    4.980e-02    7.975e-01  
  2.5300e-08    8.815e-01    4.980e-02    7.973e-01  
  2.5400e-08    8.815e-01    4.980e-02    7.971e-01  
  2.5500e-08    8.815e-01    4.980e-02    7.969e-01  
  2.5600e-08    8.815e-01    4.980e-02    7.967e-01  
  2.5700e-08    8.815e-01    4.980e-02    7.965e-01  
  2.5800e-08    8.815e-01    4.980e-02    7.964e-01  
  2.5900e-08    8.815e-01    4.980e-02    7.962e-01  
  2.6000e-08    8.815e-01    4.980e-02    7.960e-01  
  2.6100e-08    8.815e-01    4.980e-02    7.958e-01  
  2.6200e-08    8.815e-01    4.980e-02    7.956e-01  
  2.6300e-08    8.815e-01    4.980e-02    7.954e-01  
  2.6400e-08    8.815e-01    4.980e-02    7.952e-01  
  2.6500e-08    8.815e-01    4.980e-02    7.950e-01  
  2.6600e-08    8.815e-01    4.980e-02    7.948e-01  
  2.6700e-08    8.815e-01    4.980e-02    7.946e-01  
  2.6800e-08    8.815e-01    4.980e-02    7.944e-01  
  2.6900e-08    8.815e-01    4.980e-02    7.942e-01  
  2.7000e-08    8.815e-01    4.980e-02    7.940e-01  
  2.7100e-08    8.815e-01    4.980e-02    7.938e-01  
  2.7200e-08    8.815e-01    4.980e-02    7.936e-01  
  2.7300e-08    8.815e-01    4.980e-02    7.934e-01  
  2.7400e-08    8.815e-01    4.980e-02    7.932e-01  
  2.7500e-08    8.815e-01    4.980e-02    7.930e-01  
  2.7600e-08    7.121e-01    6.783e-02    7.936e-01  
  2.7700e-08    4.676e-02    8.989e-01    2.238e-01  
  2.7800e-08    4.690e-02    8.990e-01    2.238e-01  
  2.7900e-08    4.680e-02    8.989e-01    2.237e-01  
  2.8000e-08    4.700e-02    8.990e-01    2.238e-01  
  2.8100e-08    4.683e-02    8.989e-01    2.236e-01  
  2.8200e-08    4.666e-02    8.989e-01    2.234e-01  
  2.8300e-08    4.673e-02    8.989e-01    2.234e-01  
  2.8400e-08    4.682e-02    8.989e-01    2.234e-01  
  2.8500e-08    4.691e-02    8.990e-01    2.235e-01  
  2.8600e-08    4.701e-02    8.990e-01    2.235e-01  
  2.8700e-08    4.701e-02    8.990e-01    2.234e-01  
  2.8800e-08    4.696e-02    8.990e-01    2.233e-01  
  2.8900e-08    4.690e-02    8.990e-01    2.232e-01  
  2.9000e-08    4.685e-02    8.989e-01    2.231e-01  
  2.9100e-08    4.680e-02    8.989e-01    2.230e-01  
  2.9200e-08    4.675e-02    8.989e-01    2.229e-01  
  2.9300e-08    4.670e-02    8.989e-01    2.228e-01  
  2.9400e-08    4.664e-02    8.989e-01    2.227e-01  
  2.9500e-08    4.671e-02    8.989e-01    2.227e-01  
  2.9600e-08    4.677e-02    8.989e-01    2.227e-01  
  2.9700e-08    4.684e-02    8.989e-01    2.227e-01  
  2.9800e-08    4.691e-02    8.990e-01    2.227e-01  
  2.9900e-08    4.697e-02    8.990e-01    2.227e-01  
  3.0000e-08    4.704e-02    8.990e-01    2.227e-01  
  3.0100e-08    4.902e-02    8.989e-01    2.225e-01  
  3.0200e-08    4.911e-02    8.989e-01    2.225e-01  
  3.0300e-08    4.911e-02    8.989e-01    2.224e-01  
  3.0400e-08    4.911e-02    8.989e-01    2.223e-01  
  3.0500e-08    4.911e-02    8.989e-01    2.223e-01  
  3.0600e-08    4.911e-02    8.989e-01    2.222e-01  
  3.0700e-08    4.911e-02    8.989e-01    2.222e-01  
  3.0800e-08    4.911e-02    8.989e-01    2.221e-01  
  3.0900e-08    4.911e-02    8.989e-01    2.221e-01  
  3.1000e-08    4.911e-02    8.989e-01    2.220e-01  
  3.1100e-08    4.911e-02    8.989e-01    2.220e-01  
  3.1200e-08    4.911e-02    8.989e-01    2.219e-01  
  3.1300e-08    4.911e-02    8.989e-01    2.218e-01  
  3.1400e-08    4.911e-02    8.989e-01    2.218e-01  
  3.1500e-08    4.911e-02    8.989e-01    2.217e-01  
  3.1600e-08    4.911e-02    8.989e-01    2.217e-01  
  3.1700e-08    4.911e-02    8.989e-01    2.216e-01  
  3.1800e-08    4.911e-02    8.989e-01    2.216e-01  
  3.1900e-08    4.911e-02    8.989e-01    2.215e-01  
  3.2000e-08    4.911e-02    8.989e-01    2.215e-01  
  3.2100e-08    4.911e-02    8.989e-01    2.214e-01  
  3.2200e-08    4.911e-02    8.989e-01    2.213e-01  
  3.2300e-08    4.911e-02    8.989e-01    2.213e-01  
  3.2400e-08    4.911e-02    8.989e-01    2.212e-01  
  3.2500e-08    4.911e-02    8.989e-01    2.212e-01  
  3.2600e-08    4.911e-02    8.989e-01    6.626e-02  
  3.2700e-08    4.911e-02    8.989e-01    5.434e-02  
  3.2800e-08    4.911e-02    8.989e-01    5.438e-02  
  3.2900e-08    4.911e-02    8.989e-01    5.432e-02  
  3.3000e-08    4.911e-02    8.989e-01    5.432e-02  
  3.3100e-08    4.911e-02    8.989e-01    5.435e-02  
  3.3200e-08    4.911e-02    8.989e-01    5.438e-02  
  3.3300e-08    4.911e-02    8.989e-01    5.441e-02  
  3.3400e-08    4.911e-02    8.989e-01    5.442e-02  
  3.3500e-08    4.911e-02    8.989e-01    5.441e-02  
  3.3600e-08    4.911e-02    8.989e-01    5.440e-02  
  3.3700e-08    4.911e-02    8.989e-01    5.439e-02  
  3.3800e-08    4.911e-02    8.989e-01    5.438e-02  
  3.3900e-08    4.911e-02    8.989e-01    5.436e-02  
  3.4000e-08    4.911e-02    8.989e-01    5.435e-02  
  3.4100e-08    4.911e-02    8.989e-01    5.434e-02  
  3.4200e-08    4.911e-02    8.989e-01    5.433e-02  
  3.4300e-08    4.911e-02    8.989e-01    5.432e-02  
  3.4400e-08    4.911e-02    8.989e-01    5.430e-02  
  3.4500e-08    4.911e-02    8.989e-01    5.430e-02  
  3.4600e-08    4.911e-02    8.989e-01    5.433e-02  
  3.4700e-08    4.911e-02    8.989e-01    5.436e-02  
  3.4800e-08    4.911e-02    8.989e-01    5.439e-02  
  3.4900e-08    4.911e-02    8.989e-01    5.442e-02  
  3.5000e-08    4.911e-02    8.989e-01    5.445e-02  
  3.5100e-08    4.911e-02    8.989e-01    5.444e-02  
  3.5200e-08    4.911e-02    8.989e-01    5.443e-02  
  3.5300e-08    4.911e-02    8.989e-01    5.442e-02  
  3.5400e-08    4.911e-02    8.989e-01    5.441e-02  
  3.5500e-08    4.911e-02    8.989e-01    5.440e-02  
  3.5600e-08    4.911e-02    8.989e-01    5.439e-02  
  3.5700e-08    4.911e-02    8.989e-01    5.438e-02  
  3.5800e-08    4.911e-02    8.989e-01    5.438e-02  
  3.5900e-08    4.911e-02    8.989e-01    5.437e-02  
  3.6000e-08    4.911e-02    8.989e-01    5.437e-02  
  3.6100e-08    4.911e-02    8.989e-01    5.437e-02  
  3.6200e-08    4.911e-02    8.989e-01    5.436e-02  
  3.6300e-08    4.911e-02    8.989e-01    5.436e-02  
  3.6400e-08    4.911e-02    8.989e-01    5.436e-02  
  3.6500e-08    4.911e-02    8.989e-01    5.436e-02  
  3.6600e-08    4.911e-02    8.989e-01    5.436e-02  
  3.6700e-08    4.911e-02    8.989e-01    5.436e-02  
  3.6800e-08    4.911e-02    8.989e-01    5.435e-02  
  3.6900e-08    4.911e-02    8.989e-01    5.435e-02  
  3.7000e-08    4.911e-02    8.989e-01    5.435e-02  
  3.7100e-08    4.911e-02    8.989e-01    5.435e-02  
  3.7200e-08    4.911e-02    8.989e-01    5.435e-02  
  3.7300e-08    4.911e-02    8.989e-01    5.434e-02  
  3.7400e-08    4.911e-02    8.989e-01    5.434e-02  
  3.7500e-08    4.911e-02    8.989e-01    5.434e-02  
  3.7600e-08    4.911e-02    8.989e-01    5.434e-02  
  3.7700e-08    4.911e-02    8.989e-01    5.434e-02  
  3.7800e-08    4.911e-02    8.989e-01    5.433e-02  
  3.7900e-08    4.911e-02    8.989e-01    5.433e-02  
  3.8000e-08    4.911e-02    8.989e-01    5.434e-02  
  3.8100e-08    4.911e-02    8.989e-01    5.434e-02  
  3.8200e-08    4.911e-02    8.989e-01    5.434e-02  
  3.8300e-08    4.911e-02    8.989e-01    5.434e-02  
  3.8400e-08    4.911e-02    8.989e-01    5.434e-02  
  3.8500e-08    4.911e-02    8.989e-01    5.434e-02  
  3.8600e-08    4.911e-02    8.989e-01    5.434e-02  
  3.8700e-08    4.911e-02    8.989e-01    5.434e-02  
  3.8800e-08    4.911e-02    8.989e-01    5.434e-02  
  3.8900e-08    4.911e-02    8.989e-01    5.434e-02  
  3.9000e-08    4.911e-02    8.989e-01    5.434e-02  
  3.9100e-08    4.911e-02    8.989e-01    5.434e-02  
  3.9200e-08    4.911e-02    8.989e-01    5.434e-02  
  3.9300e-08    4.911e-02    8.989e-01    5.434e-02  
  3.9400e-08    4.911e-02    8.989e-01    5.434e-02  
  3.9500e-08    4.911e-02    8.989e-01    5.435e-02  
  3.9600e-08    4.911e-02    8.989e-01    5.435e-02  
  3.9700e-08    4.911e-02    8.989e-01    5.435e-02  
  3.9800e-08    4.911e-02    8.989e-01    5.435e-02  
  3.9900e-08    4.911e-02    8.989e-01    5.435e-02  
  4.0000e-08    4.911e-02    8.989e-01    5.435e-02  
y
-----------------------------------------------

          ***** job concluded
1****** HSPICE -- H-2013.03 64-BIT (Mar  7 2013) win64 ******                   
 ******  
 'inverter'

  ******  job statistics summary tnom=  25.000 temp=  25.000 *****

  ******  HSPICE Threads Information  ******

  Command Line Threads Count :     1
  Available CPU Count        :     4
  Actual Threads Count       :     1


  ******  Circuit Statistics  ******
  # nodes       =     340 # elements   =     779
  # resistors   =     144 # capacitors =     348 # inductors   =       0
  # mutual_inds =       0 # vccs       =      96 # vcvs        =     160
  # cccs        =       0 # ccvs       =       0 # volt_srcs   =      31
  # curr_srcs   =       0 # diodes     =       0 # bjts        =       0
  # jfets       =       0 # mosfets    =       0 # U elements  =       0
  # T elements  =       0 # W elements =       0 # B elements  =       0
  # S elements  =       0 # P elements =       0 # va device   =       0
  # vector_srcs =       0 # N elements =       0


  ******  Runtime Statistics (seconds)  ******

  analysis           time    # points   tot. iter  conv.iter
  op point           0.65           1          39
  transient         12.93         401         940         221 rev=        22
  readin             0.04
  errchk             0.20
  setup              0.00
  output             0.00


           peak memory used         48.89 megabytes
           total cpu time           13.84 seconds
           total elapsed time       13.86 seconds
           job started at     00:17:50 02/28/2018
           job ended   at     00:18:04 02/28/2018


  lic: Release hspice token(s) 
 lic: total license checkout elapse time:        0.02(s)
