 ****** HSPICE -- H-2013.03 64-BIT (Mar  7 2013) win64 ******                   
  Copyright (C) 2013 Synopsys, Inc. All Rights Reserved.                        
  Unpublished-rights reserved under US copyright laws.
  This program is protected by law and is subject to the
  terms and conditions of the license agreement from Synopsys.
  Use of this program is your acceptance to be bound by the
  license agreement. HSPICE is the trademark of Synopsys, Inc.
  Input File: sram32nm.sp                                                       
  Command line options: -i sram32nm.sp -o sram32nm.lis
  lic:  
  lic: FLEXlm: v10.9.8 
  lic: USER:   Dell                 HOSTNAME: DESKTOP-O3DHVG1 
  lic: HOSTID: "28f10e041fd4 00a0c6000017 a0d37a293ca4 a0d37a293ca5" PID:      9
 148 
  lic: Using FLEXlm license file: 
  lic: C:\synopsys\Hspice_H-2013.03\lic.dat\lic.lic 
  lic: Checkout 1 hspice 
  lic: License/Maintenance for hspice will expire on 31-dec-2019/2019.12 
  lic: NODE LOCKED license on hostid "28f10e041fd4 00a0c6000017 a0d37a293ca4 a0d
 37a293ca5" 
  lic:   
 Init: read install configuration file: C:\synopsys\Hspice_H-2013.03\meta.cfg
 scientific notation:
 a=10**-18  f=10**-15  p=10**-12  n=10**-9  u=10**-6
 m=10**-3   k=10**3    x=10**6    g=10**9 
1****** HSPICE -- H-2013.03 64-BIT (Mar  7 2013) win64 ******                   
 ******  
 'inverter'

  ******  circuit name directory
 circuit number to circuit name directory
   number circuitname                     definition         multiplier
        0 main circuit


 circuit parameter definitions
  parameter          =  value 

     0:temp                                                    = 2.700e+01      
     0:m_cnt                                                   = 1.000e+00      
     0:wg                                                      = 4.000e-09      
     0:cb                                                      = 4.000e-11      
     0:lg                                                      = 3.200e-08      
     0:lgef                                                    = 1.000e-07      
     0:vfn                                                     = 0.000e+00      
     0:vfp                                                     = 0.000e+00      
     0:m                                                       = 0.000e+00      
     0:n                                                       = 1.900e+01      
     0:hox                                                     = 4.000e-09      
     1:tox                                                     = 4.000e-09      
     1:csub                                                    = 4.000e-11      
     1:pitch                                                   = 2.000e-08      
     1:n1                                                      = 0.000e+00      
     1:n2                                                      = 1.900e+01      
     1:vfbp                                                    = 0.000e+00      
     1:kgate                                                   = 1.600e+01      
     1:dout                                                    = 0.000e+00      
     1:sout                                                    = 0.000e+00      
     1:tubes                                                   = 1.000e+00      
     1:lch                                                     = 3.200e-08      
     1:lgeff                                                   = 1.000e-07      
     1:lss                                                     = 3.200e-08      
     1:ldd                                                     = 3.200e-08      
     2:tox                                                     = 4.000e-09      
     2:csub                                                    = 4.000e-11      
     2:pitch                                                   = 2.000e-08      
     2:n1                                                      = 0.000e+00      
     2:n2                                                      = 1.000e+01      
     2:vfbp                                                    = 0.000e+00      
     2:kgate                                                   = 1.600e+01      
     2:dout                                                    = 0.000e+00      
     2:sout                                                    = 0.000e+00      
     2:tubes                                                   = 1.000e+00      
     2:lch                                                     = 3.200e-08      
     2:lgeff                                                   = 1.000e-07      
     2:lss                                                     = 3.200e-08      
     2:ldd                                                     = 3.200e-08      
     3:tox                                                     = 4.000e-09      
     3:csub                                                    = 4.000e-11      
     3:pitch                                                   = 2.000e-08      
     3:n1                                                      = 0.000e+00      
     3:n2                                                      = 1.300e+01      
     3:vfbp                                                    = 0.000e+00      
     3:kgate                                                   = 1.600e+01      
     3:dout                                                    = 0.000e+00      
     3:sout                                                    = 0.000e+00      
     3:tubes                                                   = 1.000e+00      
     3:lch                                                     = 3.200e-08      
     3:lgeff                                                   = 1.000e-07      
     3:lss                                                     = 3.200e-08      
     3:ldd                                                     = 3.200e-08      
     4:tox                                                     = 4.000e-09      
     4:csub                                                    = 4.000e-11      
     4:vfbn                                                    = 0.000e+00      
     4:pitch                                                   = 2.000e-08      
     4:n1                                                      = 0.000e+00      
     4:n2                                                      = 1.300e+01      
     4:kgate                                                   = 1.600e+01      
     4:dout                                                    = 0.000e+00      
     4:sout                                                    = 0.000e+00      
     4:tubes                                                   = 1.000e+00      
     4:lch                                                     = 3.200e-08      
     4:lgeff                                                   = 1.000e-07      
     4:lss                                                     = 3.200e-08      
     4:ldd                                                     = 3.200e-08      
     5:tox                                                     = 4.000e-09      
     5:csub                                                    = 4.000e-11      
     5:vfbn                                                    = 0.000e+00      
     5:pitch                                                   = 2.000e-08      
     5:n1                                                      = 0.000e+00      
     5:n2                                                      = 1.900e+01      
     5:kgate                                                   = 1.600e+01      
     5:dout                                                    = 0.000e+00      
     5:sout                                                    = 0.000e+00      
     5:tubes                                                   = 1.000e+00      
     5:lch                                                     = 3.200e-08      
     5:lgeff                                                   = 1.000e-07      
     5:lss                                                     = 3.200e-08      
     5:ldd                                                     = 3.200e-08      
     6:tox                                                     = 4.000e-09      
     6:csub                                                    = 4.000e-11      
     6:vfbn                                                    = 0.000e+00      
     6:pitch                                                   = 2.000e-08      
     6:n1                                                      = 0.000e+00      
     6:n2                                                      = 1.000e+01      
     6:kgate                                                   = 1.600e+01      
     6:dout                                                    = 0.000e+00      
     6:sout                                                    = 0.000e+00      
     6:tubes                                                   = 1.000e+00      
     6:lch                                                     = 3.200e-08      
     6:lgeff                                                   = 1.000e-07      
     6:lss                                                     = 3.200e-08      
     6:ldd                                                     = 3.200e-08      




 constants  - tnom         kt           vt           gapsi        ni
            2.9815e+02   4.1163e-21   2.5692e-02   1.1156e+00   1.2565e+16 
  **info** (sram32nm.sp:130) DC voltage reset to initial transient source value              in source        0:vrwl                new dc=  0.0000D+00

 **warning**  associated with encrypted block(s) were suppressed due to encrypted content

1****** HSPICE -- H-2013.03 64-BIT (Mar  7 2013) win64 ******                   
 ******  
 'inverter'

  ******  circuit element summary tnom=  25.000 temp=  25.000 *****


 **** independent sources

     name         node1        node2      dc volt    ac mag    ac phase    type
  vdd  vdd               0                  9.000e-01  0.000e+00  0.000e+00 dc   
  vrwl  rwl               0                  0.000e+00  0.000e+00  0.000e+00 pwl  
                time        value

                 0.000e+00    0.000e+00
                 1.250e-08    0.000e+00
                 1.260e-08    9.000e-01
                 1.500e-08    9.000e-01
                 1.510e-08    0.000e+00
                 2.250e-08    0.000e+00
                 2.260e-08    9.000e-01
                 2.500e-08    9.000e-01
                 2.510e-08    0.000e+00
                 3.250e-08    0.000e+00
                 3.260e-08    9.000e-01
                 3.500e-08    9.000e-01


  vrwlb  rwlb              0                  9.000e-01  0.000e+00  0.000e+00 pwl  
                time        value

                 0.000e+00    9.000e-01
                 1.250e-08    9.000e-01
                 1.260e-08    0.000e+00
                 1.500e-08    0.000e+00
                 1.510e-08    9.000e-01
                 2.250e-08    9.000e-01
                 2.260e-08    0.000e+00
                 2.500e-08    0.000e+00
                 2.510e-08    9.000e-01
                 3.250e-08    9.000e-01
                 3.260e-08    0.000e+00
                 3.500e-08    0.000e+00


  vwbl  wbl               0                  0.000e+00  0.000e+00  0.000e+00 pwl  
                time        value

                 0.000e+00    0.000e+00
                 5.000e-09    0.000e+00
                 5.100e-09    4.500e-01
                 1.000e-08    4.500e-01
                 1.010e-08    0.000e+00
                 1.500e-08    0.000e+00
                 1.510e-08    9.000e-01
                 2.000e-08    9.000e-01
                 2.010e-08    0.000e+00
                 3.000e-08    0.000e+00
                 4.000e-08    0.000e+00


  vwwl  wwl               0                  0.000e+00  0.000e+00  0.000e+00 pwl  
                time        value

                 0.000e+00    0.000e+00
                 7.500e-09    0.000e+00
                 7.600e-09    9.000e-01
                 1.000e-08    9.000e-01
                 1.010e-08    0.000e+00
                 1.750e-08    0.000e+00
                 1.760e-08    9.000e-01
                 2.000e-08    9.000e-01
                 2.010e-08    0.000e+00
                 2.750e-08    0.000e+00
                 2.760e-08    9.000e-01
                 3.000e-08    9.000e-01
                 3.010e-08    0.000e+00
                 4.000e-08    0.000e+00


  vwwlb  wwlb              0                  9.000e-01  0.000e+00  0.000e+00 pwl  
                time        value

                 0.000e+00    9.000e-01
                 7.500e-09    9.000e-01
                 7.600e-09    0.000e+00
                 1.000e-08    0.000e+00
                 1.010e-08    9.000e-01
                 1.750e-08    9.000e-01
                 1.760e-08    0.000e+00
                 2.000e-08    0.000e+00
                 2.010e-08    9.000e-01
                 2.750e-08    9.000e-01
                 2.760e-08    0.000e+00
                 3.000e-08    0.000e+00
                 3.010e-08    9.000e-01
                 4.000e-08    9.000e-01




 **** subcircuit calls
    name        subcircuit         external nodes


         0:xcnt7    pcnfet          0:vdd         0:q           0:n2      
                               0:n2      


         0:xcnt8    pcnfet          0:vdd         0:q           0:qb      
                               0:qb      


         0:xcnt6    pcnfet          0:qb          0:qb          0:n2      
                               0:n2      


         0:xcnt5    ncnfet          0:qb          0:qb          0:n1      
                               0:n1      


         0:xcnt3    ncnfet          0:n1          0:q           0:0       
                               0:0       


         0:xcnt4    ncnfet          0:qb          0:q           0:0       
                               0:0       


         0:xcnt14   pcnfet          0:vdd         0:qb          0:q       
                               0:q       


         0:xcnt13   pcnfet          0:vdd         0:qb          0:n4      
                               0:n4      


         0:xcnt12   pcnfet          0:q           0:q           0:n4      
                               0:n4      


         0:xcnt11   ncnfet          0:q           0:q           0:n3      
                               0:n3      


         0:xcnt10   ncnfet          0:q           0:qb          0:0       
                               0:0       


         0:xcnt9    ncnfet          0:n3          0:qb          0:0       
                               0:0       


         0:xcnt2    pcnfet          0:q           0:wwlb        0:wbl     
                               0:wbl     


         0:xcnt1    ncnfet          0:wbl         0:wwl         0:q       
                               0:q       


         0:xcnt16   pcnfet          0:vdd         0:qb          0:n5      
                               0:n5      


         0:xcnt15   ncnfet          0:n5          0:qb          0:0       
                               0:0       


         0:xcnt18   pcnfet          0:rbl         0:rwlb        0:n5      
                               0:n5      


         0:xcnt17   ncnfet          0:n5          0:rwl         0:rbl     
                               0:rbl     


  
1****** HSPICE -- H-2013.03 64-BIT (Mar  7 2013) win64 ******                   
 ******  
 'inverter'

  ******  element node table
                                                                                      
 0                vdd              vrwl             vrwlb            vwbl             
                  vwwl             vwwlb                                              
 rwl              vrwl                                                                
 rwlb             vrwlb                                                               
 vdd              vdd                                                                 
 wbl              vwbl                                                                
 wwl              vwwl                                                                
 wwlb             vwwlb                                                               
  **warning** PIVOT option setting is simplified, pivot = 13 is obsolete,
              automatically switch to pivot = 1.
 *****************************************************************
 ******  option summary
 ******
 runlvl  = 3         bypass  = 2         
  Opening plot unit= 79
 file=sram32nm.pa0

1****** HSPICE -- H-2013.03 64-BIT (Mar  7 2013) win64 ******                   
 ******  
 'inverter'

  ******  operating point information tnom=  25.000 temp=  25.000 *****
 ***** operating point status is voltage   simulation time is   0.000e+00
     node    =voltage       node    =voltage       node    =voltage

 + 0:n1      = 1.083e-02  0:n2      = 8.891e-01  0:n3      = 1.081e-02
 + 0:n4      = 8.891e-01  0:n5      = 4.649e-03  0:q       = 4.496e-01
 + 0:qb      = 4.497e-01  0:rbl     = 4.593e-03  0:rwl     = 0.000e+00
 + 0:rwlb    = 9.000e-01  0:vdd     = 9.000e-01  0:wbl     = 0.000e+00
 + 0:wwl     = 0.000e+00  0:wwlb    = 9.000e-01

 ******  
 'inverter'

  ******  transient analysis tnom=  25.000 temp=  25.000 *****
x

        time    voltage      voltage      voltage      voltage    
                     q           qb           n5           rbl    
  0.0000e+00    4.496e-01    4.497e-01    4.649e-03    4.593e-03  
  1.0000e-10    4.496e-01    4.497e-01    4.649e-03    4.593e-03  
  2.0000e-10    4.496e-01    4.497e-01    4.649e-03    4.593e-03  
  3.0000e-10    4.496e-01    4.497e-01    4.649e-03    4.593e-03  
  4.0000e-10    4.496e-01    4.497e-01    4.649e-03    4.593e-03  
  5.0000e-10    4.496e-01    4.497e-01    4.649e-03    4.593e-03  
  6.0000e-10    4.496e-01    4.497e-01    4.649e-03    4.593e-03  
  7.0000e-10    4.496e-01    4.497e-01    4.649e-03    4.593e-03  
  8.0000e-10    4.496e-01    4.497e-01    4.649e-03    4.593e-03  
  9.0000e-10    4.496e-01    4.497e-01    4.649e-03    4.593e-03  
  1.0000e-09    4.496e-01    4.497e-01    4.649e-03    4.593e-03  
  1.1000e-09    4.496e-01    4.497e-01    4.649e-03    4.593e-03  
  1.2000e-09    4.496e-01    4.497e-01    4.649e-03    4.593e-03  
  1.3000e-09    4.496e-01    4.497e-01    4.649e-03    4.593e-03  
  1.4000e-09    4.496e-01    4.497e-01    4.649e-03    4.593e-03  
  1.5000e-09    4.496e-01    4.497e-01    4.649e-03    4.593e-03  
  1.6000e-09    4.496e-01    4.497e-01    4.649e-03    4.593e-03  
  1.7000e-09    4.496e-01    4.497e-01    4.649e-03    4.593e-03  
  1.8000e-09    4.496e-01    4.497e-01    4.649e-03    4.593e-03  
  1.9000e-09    4.496e-01    4.497e-01    4.649e-03    4.593e-03  
  2.0000e-09    4.496e-01    4.497e-01    4.649e-03    4.593e-03  
  2.1000e-09    4.496e-01    4.497e-01    4.649e-03    4.593e-03  
  2.2000e-09    4.496e-01    4.497e-01    4.649e-03    4.593e-03  
  2.3000e-09    4.496e-01    4.497e-01    4.649e-03    4.593e-03  
  2.4000e-09    4.496e-01    4.497e-01    4.649e-03    4.593e-03  
  2.5000e-09    4.496e-01    4.497e-01    4.649e-03    4.593e-03  
  2.6000e-09    4.496e-01    4.497e-01    4.649e-03    4.593e-03  
  2.7000e-09    4.496e-01    4.497e-01    4.649e-03    4.593e-03  
  2.8000e-09    4.496e-01    4.497e-01    4.649e-03    4.593e-03  
  2.9000e-09    4.496e-01    4.497e-01    4.649e-03    4.593e-03  
  3.0000e-09    4.496e-01    4.497e-01    4.649e-03    4.593e-03  
  3.1000e-09    4.496e-01    4.497e-01    4.649e-03    4.593e-03  
  3.2000e-09    4.496e-01    4.497e-01    4.649e-03    4.593e-03  
  3.3000e-09    4.496e-01    4.497e-01    4.649e-03    4.593e-03  
  3.4000e-09    4.496e-01    4.497e-01    4.649e-03    4.593e-03  
  3.5000e-09    4.496e-01    4.497e-01    4.649e-03    4.593e-03  
  3.6000e-09    4.496e-01    4.497e-01    4.649e-03    4.593e-03  
  3.7000e-09    4.496e-01    4.497e-01    4.649e-03    4.593e-03  
  3.8000e-09    4.496e-01    4.497e-01    4.649e-03    4.593e-03  
  3.9000e-09    4.496e-01    4.497e-01    4.649e-03    4.593e-03  
  4.0000e-09    4.496e-01    4.497e-01    4.649e-03    4.593e-03  
  4.1000e-09    4.496e-01    4.497e-01    4.649e-03    4.593e-03  
  4.2000e-09    4.496e-01    4.497e-01    4.649e-03    4.593e-03  
  4.3000e-09    4.496e-01    4.497e-01    4.649e-03    4.593e-03  
  4.4000e-09    4.496e-01    4.497e-01    4.649e-03    4.593e-03  
  4.5000e-09    4.496e-01    4.497e-01    4.649e-03    4.593e-03  
  4.6000e-09    4.496e-01    4.497e-01    4.649e-03    4.593e-03  
  4.7000e-09    4.496e-01    4.497e-01    4.649e-03    4.593e-03  
  4.8000e-09    4.496e-01    4.497e-01    4.649e-03    4.593e-03  
  4.9000e-09    4.496e-01    4.497e-01    4.649e-03    4.593e-03  
  5.0000e-09    4.496e-01    4.497e-01    4.649e-03    4.593e-03  
  5.1000e-09    4.511e-01    4.496e-01    4.654e-03    4.596e-03  
  5.2000e-09    4.497e-01    4.497e-01    4.663e-03    4.601e-03  
  5.3000e-09    4.497e-01    4.497e-01    4.652e-03    4.595e-03  
  5.4000e-09    4.497e-01    4.497e-01    4.651e-03    4.594e-03  
  5.5000e-09    4.497e-01    4.497e-01    4.650e-03    4.594e-03  
  5.6000e-09    4.497e-01    4.497e-01    4.650e-03    4.594e-03  
  5.7000e-09    4.497e-01    4.497e-01    4.649e-03    4.593e-03  
  5.8000e-09    4.497e-01    4.497e-01    4.649e-03    4.593e-03  
  5.9000e-09    4.497e-01    4.497e-01    4.648e-03    4.593e-03  
  6.0000e-09    4.497e-01    4.497e-01    4.648e-03    4.593e-03  
  6.1000e-09    4.497e-01    4.497e-01    4.648e-03    4.593e-03  
  6.2000e-09    4.497e-01    4.497e-01    4.648e-03    4.593e-03  
  6.3000e-09    4.497e-01    4.497e-01    4.649e-03    4.593e-03  
  6.4000e-09    4.497e-01    4.497e-01    4.649e-03    4.593e-03  
  6.5000e-09    4.497e-01    4.497e-01    4.649e-03    4.593e-03  
  6.6000e-09    4.497e-01    4.497e-01    4.649e-03    4.593e-03  
  6.7000e-09    4.497e-01    4.497e-01    4.649e-03    4.593e-03  
  6.8000e-09    4.497e-01    4.497e-01    4.650e-03    4.593e-03  
  6.9000e-09    4.497e-01    4.497e-01    4.650e-03    4.594e-03  
  7.0000e-09    4.497e-01    4.497e-01    4.650e-03    4.594e-03  
  7.1000e-09    4.497e-01    4.497e-01    4.650e-03    4.594e-03  
  7.2000e-09    4.497e-01    4.497e-01    4.650e-03    4.594e-03  
  7.3000e-09    4.497e-01    4.497e-01    4.650e-03    4.594e-03  
  7.4000e-09    4.497e-01    4.497e-01    4.651e-03    4.594e-03  
  7.5000e-09    4.497e-01    4.497e-01    4.651e-03    4.594e-03  
  7.6000e-09    4.506e-01    4.496e-01    4.653e-03    4.596e-03  
  7.7000e-09    4.499e-01    4.496e-01    4.662e-03    4.601e-03  
  7.8000e-09    4.500e-01    4.497e-01    4.655e-03    4.597e-03  
  7.9000e-09    4.500e-01    4.496e-01    4.654e-03    4.596e-03  
  8.0000e-09    4.499e-01    4.496e-01    4.653e-03    4.596e-03  
  8.1000e-09    4.499e-01    4.496e-01    4.652e-03    4.595e-03  
  8.2000e-09    4.499e-01    4.496e-01    4.651e-03    4.595e-03  
  8.3000e-09    4.499e-01    4.496e-01    4.651e-03    4.595e-03  
  8.4000e-09    4.499e-01    4.496e-01    4.652e-03    4.595e-03  
  8.5000e-09    4.499e-01    4.496e-01    4.652e-03    4.595e-03  
  8.6000e-09    4.499e-01    4.496e-01    4.652e-03    4.595e-03  
  8.7000e-09    4.499e-01    4.496e-01    4.652e-03    4.595e-03  
  8.8000e-09    4.499e-01    4.496e-01    4.652e-03    4.596e-03  
  8.9000e-09    4.499e-01    4.496e-01    4.653e-03    4.596e-03  
  9.0000e-09    4.499e-01    4.496e-01    4.653e-03    4.596e-03  
  9.1000e-09    4.500e-01    4.496e-01    4.653e-03    4.596e-03  
  9.2000e-09    4.500e-01    4.496e-01    4.653e-03    4.596e-03  
  9.3000e-09    4.500e-01    4.496e-01    4.654e-03    4.596e-03  
  9.4000e-09    4.500e-01    4.496e-01    4.654e-03    4.597e-03  
  9.5000e-09    4.500e-01    4.496e-01    4.654e-03    4.597e-03  
  9.6000e-09    4.500e-01    4.496e-01    4.654e-03    4.596e-03  
  9.7000e-09    4.499e-01    4.496e-01    4.653e-03    4.596e-03  
  9.8000e-09    4.499e-01    4.496e-01    4.653e-03    4.596e-03  
  9.9000e-09    4.499e-01    4.496e-01    4.652e-03    4.596e-03  
  1.0000e-08    4.499e-01    4.496e-01    4.652e-03    4.595e-03  
  1.0100e-08    4.465e-01    4.498e-01    4.615e-03    4.574e-03  
  1.0200e-08    4.496e-01    4.497e-01    4.617e-03    4.575e-03  
  1.0300e-08    4.496e-01    4.497e-01    4.639e-03    4.587e-03  
  1.0400e-08    4.496e-01    4.497e-01    4.646e-03    4.592e-03  
  1.0500e-08    4.496e-01    4.497e-01    4.648e-03    4.593e-03  
  1.0600e-08    4.496e-01    4.497e-01    4.649e-03    4.594e-03  
  1.0700e-08    4.496e-01    4.497e-01    4.651e-03    4.595e-03  
  1.0800e-08    4.496e-01    4.497e-01    4.652e-03    4.595e-03  
  1.0900e-08    4.496e-01    4.497e-01    4.651e-03    4.595e-03  
  1.1000e-08    4.496e-01    4.497e-01    4.651e-03    4.594e-03  
  1.1100e-08    4.496e-01    4.497e-01    4.650e-03    4.594e-03  
  1.1200e-08    4.496e-01    4.497e-01    4.650e-03    4.594e-03  
  1.1300e-08    4.496e-01    4.497e-01    4.650e-03    4.594e-03  
  1.1400e-08    4.496e-01    4.497e-01    4.649e-03    4.593e-03  
  1.1500e-08    4.496e-01    4.497e-01    4.649e-03    4.593e-03  
  1.1600e-08    4.496e-01    4.497e-01    4.648e-03    4.593e-03  
  1.1700e-08    4.496e-01    4.497e-01    4.648e-03    4.593e-03  
  1.1800e-08    4.496e-01    4.497e-01    4.648e-03    4.592e-03  
  1.1900e-08    4.496e-01    4.497e-01    4.647e-03    4.592e-03  
  1.2000e-08    4.496e-01    4.497e-01    4.647e-03    4.592e-03  
  1.2100e-08    4.496e-01    4.497e-01    4.648e-03    4.592e-03  
  1.2200e-08    4.496e-01    4.497e-01    4.648e-03    4.593e-03  
  1.2300e-08    4.496e-01    4.497e-01    4.649e-03    4.593e-03  
  1.2400e-08    4.496e-01    4.497e-01    4.650e-03    4.594e-03  
  1.2500e-08    4.496e-01    4.497e-01    4.651e-03    4.594e-03  
  1.2600e-08    4.495e-01    4.505e-01    2.953e-01    2.963e-01  
  1.2700e-08    4.496e-01    4.496e-01    2.798e-01    2.799e-01  
  1.2800e-08    4.496e-01    4.496e-01    2.634e-01    2.634e-01  
  1.2900e-08    4.496e-01    4.496e-01    2.463e-01    2.463e-01  
  1.3000e-08    4.496e-01    4.496e-01    2.292e-01    2.293e-01  
  1.3100e-08    4.496e-01    4.496e-01    2.118e-01    2.118e-01  
  1.3200e-08    4.496e-01    4.496e-01    1.942e-01    1.942e-01  
  1.3300e-08    4.496e-01    4.496e-01    1.766e-01    1.766e-01  
  1.3400e-08    4.496e-01    4.496e-01    1.590e-01    1.590e-01  
  1.3500e-08    4.496e-01    4.496e-01    1.414e-01    1.414e-01  
  1.3600e-08    4.496e-01    4.496e-01    1.238e-01    1.239e-01  
  1.3700e-08    4.496e-01    4.496e-01    1.062e-01    1.063e-01  
  1.3800e-08    4.496e-01    4.496e-01    8.865e-02    8.869e-02  
  1.3900e-08    4.496e-01    4.496e-01    7.601e-02    7.604e-02  
  1.4000e-08    4.496e-01    4.496e-01    6.644e-02    6.647e-02  
  1.4100e-08    4.496e-01    4.496e-01    5.687e-02    5.690e-02  
  1.4200e-08    4.496e-01    4.496e-01    4.731e-02    4.733e-02  
  1.4300e-08    4.496e-01    4.496e-01    3.774e-02    3.776e-02  
  1.4400e-08    4.496e-01    4.497e-01    2.818e-02    2.818e-02  
  1.4500e-08    4.496e-01    4.497e-01    1.861e-02    1.861e-02  
  1.4600e-08    4.496e-01    4.497e-01    9.046e-03    9.040e-03  
  1.4700e-08    4.496e-01    4.497e-01    6.701e-03    6.697e-03  
  1.4800e-08    4.496e-01    4.497e-01    5.983e-03    5.984e-03  
  1.4900e-08    4.496e-01    4.497e-01    5.265e-03    5.271e-03  
  1.5000e-08    4.496e-01    4.497e-01    4.548e-03    4.558e-03  
  1.5100e-08    4.528e-01    4.503e-01   -5.626e-02   -1.086e-01  
  1.5200e-08    4.497e-01    4.497e-01   -6.519e-03   -6.959e-02  
  1.5300e-08    4.497e-01    4.497e-01    1.421e-03   -5.966e-02  
  1.5400e-08    4.497e-01    4.497e-01    3.151e-03   -5.468e-02  
  1.5500e-08    4.497e-01    4.497e-01    3.703e-03   -5.107e-02  
  1.5600e-08    4.497e-01    4.497e-01    3.877e-03   -4.794e-02  
  1.5700e-08    4.497e-01    4.497e-01    4.002e-03   -4.524e-02  
  1.5800e-08    4.497e-01    4.497e-01    4.079e-03   -4.301e-02  
  1.5900e-08    4.497e-01    4.497e-01    4.155e-03   -4.077e-02  
  1.6000e-08    4.497e-01    4.497e-01    4.231e-03   -3.853e-02  
  1.6100e-08    4.497e-01    4.497e-01    4.273e-03   -3.680e-02  
  1.6200e-08    4.497e-01    4.497e-01    4.295e-03   -3.537e-02  
  1.6300e-08    4.497e-01    4.497e-01    4.317e-03   -3.395e-02  
  1.6400e-08    4.497e-01    4.497e-01    4.339e-03   -3.252e-02  
  1.6500e-08    4.497e-01    4.497e-01    4.360e-03   -3.109e-02  
  1.6600e-08    4.497e-01    4.497e-01    4.382e-03   -2.966e-02  
  1.6700e-08    4.497e-01    4.497e-01    4.404e-03   -2.823e-02  
  1.6800e-08    4.497e-01    4.497e-01    4.425e-03   -2.682e-02  
  1.6900e-08    4.497e-01    4.497e-01    4.435e-03   -2.594e-02  
  1.7000e-08    4.497e-01    4.497e-01    4.445e-03   -2.506e-02  
  1.7100e-08    4.497e-01    4.497e-01    4.455e-03   -2.418e-02  
  1.7200e-08    4.497e-01    4.497e-01    4.465e-03   -2.330e-02  
  1.7300e-08    4.497e-01    4.497e-01    4.475e-03   -2.242e-02  
  1.7400e-08    4.497e-01    4.497e-01    4.485e-03   -2.154e-02  
  1.7500e-08    4.497e-01    4.497e-01    4.495e-03   -2.065e-02  
  1.7600e-08    8.999e-01    5.809e-04    9.001e-01    5.053e-01  
  1.7700e-08    9.000e-01    1.499e-04    9.000e-01    5.059e-01  
  1.7800e-08    9.000e-01    1.324e-04    9.000e-01    5.065e-01  
  1.7900e-08    9.000e-01    1.164e-04    9.000e-01    5.071e-01  
  1.8000e-08    9.000e-01    1.193e-04    9.000e-01    5.076e-01  
  1.8100e-08    9.000e-01    1.206e-04    9.000e-01    5.082e-01  
  1.8200e-08    9.000e-01    1.162e-04    9.000e-01    5.088e-01  
  1.8300e-08    9.000e-01    1.119e-04    9.000e-01    5.094e-01  
  1.8400e-08    9.000e-01    1.076e-04    9.000e-01    5.100e-01  
  1.8500e-08    9.000e-01    1.093e-04    9.000e-01    5.106e-01  
  1.8600e-08    9.000e-01    1.113e-04    9.000e-01    5.112e-01  
  1.8700e-08    9.000e-01    1.134e-04    9.000e-01    5.118e-01  
  1.8800e-08    9.000e-01    1.154e-04    9.000e-01    5.124e-01  
  1.8900e-08    9.000e-01    1.174e-04    9.000e-01    5.130e-01  
  1.9000e-08    9.000e-01    1.174e-04    9.000e-01    5.136e-01  
  1.9100e-08    9.000e-01    1.162e-04    9.000e-01    5.142e-01  
  1.9200e-08    9.000e-01    1.149e-04    9.000e-01    5.148e-01  
  1.9300e-08    9.000e-01    1.136e-04    9.000e-01    5.154e-01  
  1.9400e-08    9.000e-01    1.123e-04    9.000e-01    5.160e-01  
  1.9500e-08    9.000e-01    1.111e-04    9.000e-01    5.166e-01  
  1.9600e-08    9.000e-01    1.098e-04    9.000e-01    5.172e-01  
  1.9700e-08    9.000e-01    1.085e-04    9.000e-01    5.178e-01  
  1.9800e-08    9.000e-01    1.072e-04    9.000e-01    5.184e-01  
  1.9900e-08    9.000e-01    1.114e-04    9.000e-01    5.190e-01  
  2.0000e-08    9.000e-01    1.182e-04    9.000e-01    5.196e-01  
  2.0100e-08    8.964e-01    4.696e-05    9.000e-01    5.201e-01  
  2.0200e-08    8.998e-01    1.095e-04    9.000e-01    5.207e-01  
  2.0300e-08    8.998e-01    1.168e-04    9.000e-01    5.213e-01  
  2.0400e-08    8.998e-01    1.185e-04    9.000e-01    5.219e-01  
  2.0500e-08    8.998e-01    1.152e-04    9.000e-01    5.225e-01  
  2.0600e-08    8.998e-01    1.120e-04    9.000e-01    5.231e-01  
  2.0700e-08    8.998e-01    1.087e-04    9.000e-01    5.237e-01  
  2.0800e-08    8.998e-01    1.068e-04    9.000e-01    5.243e-01  
  2.0900e-08    8.998e-01    1.081e-04    9.000e-01    5.249e-01  
  2.1000e-08    8.998e-01    1.094e-04    9.000e-01    5.255e-01  
  2.1100e-08    8.998e-01    1.107e-04    9.000e-01    5.261e-01  
  2.1200e-08    8.998e-01    1.120e-04    9.000e-01    5.267e-01  
  2.1300e-08    8.998e-01    1.133e-04    9.000e-01    5.273e-01  
  2.1400e-08    8.998e-01    1.147e-04    9.000e-01    5.278e-01  
  2.1500e-08    8.998e-01    1.160e-04    9.000e-01    5.284e-01  
  2.1600e-08    8.998e-01    1.173e-04    9.000e-01    5.290e-01  
  2.1700e-08    8.997e-01    1.186e-04    9.000e-01    5.296e-01  
  2.1800e-08    8.998e-01    1.171e-04    9.000e-01    5.302e-01  
  2.1900e-08    8.998e-01    1.156e-04    9.000e-01    5.308e-01  
  2.2000e-08    8.998e-01    1.141e-04    9.000e-01    5.314e-01  
  2.2100e-08    8.998e-01    1.126e-04    9.000e-01    5.320e-01  
  2.2200e-08    8.998e-01    1.111e-04    9.000e-01    5.326e-01  
  2.2300e-08    8.998e-01    1.096e-04    9.000e-01    5.332e-01  
  2.2400e-08    8.998e-01    1.081e-04    9.000e-01    5.338e-01  
  2.2500e-08    8.998e-01    1.066e-04    9.000e-01    5.344e-01  
  2.2600e-08    8.998e-01    7.268e-06    8.963e-01    8.950e-01  
  2.2700e-08    8.998e-01    1.181e-04    9.000e-01    9.000e-01  
  2.2800e-08    8.998e-01    1.072e-04    9.000e-01    9.000e-01  
  2.2900e-08    8.998e-01    1.184e-04    9.000e-01    9.000e-01  
  2.3000e-08    8.998e-01    1.210e-04    9.000e-01    9.001e-01  
  2.3100e-08    8.998e-01    1.161e-04    9.000e-01    9.000e-01  
  2.3200e-08    8.998e-01    1.113e-04    9.000e-01    9.000e-01  
  2.3300e-08    8.998e-01    1.065e-04    9.000e-01    9.000e-01  
  2.3400e-08    8.998e-01    1.017e-04    8.999e-01    8.999e-01  
  2.3500e-08    8.998e-01    1.037e-04    8.999e-01    8.999e-01  
  2.3600e-08    8.998e-01    1.059e-04    9.000e-01    8.999e-01  
  2.3700e-08    8.998e-01    1.081e-04    9.000e-01    9.000e-01  
  2.3800e-08    8.998e-01    1.102e-04    9.000e-01    9.000e-01  
  2.3900e-08    8.998e-01    1.124e-04    9.000e-01    9.000e-01  
  2.4000e-08    8.998e-01    1.145e-04    9.000e-01    9.000e-01  
  2.4100e-08    8.998e-01    1.167e-04    9.000e-01    9.000e-01  
  2.4200e-08    8.998e-01    1.189e-04    9.000e-01    9.000e-01  
  2.4300e-08    8.998e-01    1.210e-04    9.000e-01    9.001e-01  
  2.4400e-08    8.998e-01    1.232e-04    9.001e-01    9.001e-01  
  2.4500e-08    8.998e-01    1.202e-04    9.000e-01    9.001e-01  
  2.4600e-08    8.998e-01    1.165e-04    9.000e-01    9.000e-01  
  2.4700e-08    8.998e-01    1.128e-04    9.000e-01    9.000e-01  
  2.4800e-08    8.998e-01    1.091e-04    9.000e-01    9.000e-01  
  2.4900e-08    8.998e-01    1.054e-04    9.000e-01    8.999e-01  
  2.5000e-08    8.998e-01    1.017e-04    8.999e-01    8.999e-01  
  2.5100e-08    8.998e-01    1.171e-04    9.005e-01    8.442e-01  
  2.5200e-08    8.998e-01    1.118e-04    9.000e-01    8.442e-01  
  2.5300e-08    8.998e-01    1.135e-04    9.000e-01    8.446e-01  
  2.5400e-08    8.998e-01    1.130e-04    9.000e-01    8.449e-01  
  2.5500e-08    8.998e-01    1.125e-04    9.000e-01    8.453e-01  
  2.5600e-08    8.998e-01    1.120e-04    9.000e-01    8.457e-01  
  2.5700e-08    8.998e-01    1.116e-04    9.000e-01    8.461e-01  
  2.5800e-08    8.998e-01    1.118e-04    9.000e-01    8.464e-01  
  2.5900e-08    8.998e-01    1.119e-04    9.000e-01    8.468e-01  
  2.6000e-08    8.998e-01    1.121e-04    9.000e-01    8.472e-01  
  2.6100e-08    8.998e-01    1.123e-04    9.000e-01    8.476e-01  
  2.6200e-08    8.998e-01    1.124e-04    9.000e-01    8.479e-01  
  2.6300e-08    8.998e-01    1.126e-04    9.000e-01    8.483e-01  
  2.6400e-08    8.998e-01    1.127e-04    9.000e-01    8.487e-01  
  2.6500e-08    8.998e-01    1.129e-04    9.000e-01    8.490e-01  
  2.6600e-08    8.998e-01    1.131e-04    9.000e-01    8.494e-01  
  2.6700e-08    8.998e-01    1.132e-04    9.000e-01    8.498e-01  
  2.6800e-08    8.998e-01    1.134e-04    9.000e-01    8.501e-01  
  2.6900e-08    8.998e-01    1.134e-04    9.000e-01    8.505e-01  
  2.7000e-08    8.998e-01    1.131e-04    9.000e-01    8.509e-01  
  2.7100e-08    8.998e-01    1.128e-04    9.000e-01    8.512e-01  
  2.7200e-08    8.998e-01    1.125e-04    9.000e-01    8.516e-01  
  2.7300e-08    8.998e-01    1.122e-04    9.000e-01    8.519e-01  
  2.7400e-08    8.998e-01    1.119e-04    9.000e-01    8.523e-01  
  2.7500e-08    8.998e-01    1.116e-04    9.000e-01    8.526e-01  
  2.7600e-08    1.245e-03    8.990e-01   -2.237e-04    3.248e-01  
  2.7700e-08    5.035e-05    8.999e-01    6.106e-05    3.238e-01  
  2.7800e-08    3.744e-05    9.000e-01    6.143e-05    3.227e-01  
  2.7900e-08    3.967e-05    9.000e-01    6.063e-05    3.217e-01  
  2.8000e-08    4.506e-05    9.000e-01    5.971e-05    3.206e-01  
  2.8100e-08    3.664e-05    9.000e-01    6.074e-05    3.195e-01  
  2.8200e-08    2.822e-05    9.000e-01    6.177e-05    3.185e-01  
  2.8300e-08    3.085e-05    9.000e-01    6.134e-05    3.175e-01  
  2.8400e-08    3.542e-05    9.000e-01    6.065e-05    3.165e-01  
  2.8500e-08    3.999e-05    9.000e-01    5.996e-05    3.156e-01  
  2.8600e-08    4.456e-05    9.000e-01    5.927e-05    3.146e-01  
  2.8700e-08    4.291e-05    9.000e-01    5.948e-05    3.137e-01  
  2.8800e-08    4.002e-05    9.000e-01    5.988e-05    3.128e-01  
  2.8900e-08    3.713e-05    9.000e-01    6.028e-05    3.119e-01  
  2.9000e-08    3.424e-05    9.000e-01    6.067e-05    3.110e-01  
  2.9100e-08    3.135e-05    9.000e-01    6.107e-05    3.101e-01  
  2.9200e-08    2.846e-05    9.000e-01    6.147e-05    3.092e-01  
  2.9300e-08    2.723e-05    9.000e-01    6.162e-05    3.083e-01  
  2.9400e-08    2.980e-05    9.000e-01    6.123e-05    3.075e-01  
  2.9500e-08    3.237e-05    9.000e-01    6.084e-05    3.067e-01  
  2.9600e-08    3.494e-05    9.000e-01    6.044e-05    3.059e-01  
  2.9700e-08    3.751e-05    9.000e-01    6.005e-05    3.051e-01  
  2.9800e-08    4.008e-05    9.000e-01    5.966e-05    3.043e-01  
  2.9900e-08    4.265e-05    9.000e-01    5.927e-05    3.035e-01  
  3.0000e-08    4.523e-05    9.000e-01    5.887e-05    3.027e-01  
  3.0100e-08   -1.285e-03    9.000e-01    6.079e-05    3.019e-01  
  3.0200e-08    1.143e-04    9.000e-01    6.004e-05    3.011e-01  
  3.0300e-08    1.100e-04    9.000e-01    6.027e-05    3.004e-01  
  3.0400e-08    1.119e-04    9.000e-01    6.024e-05    2.997e-01  
  3.0500e-08    1.137e-04    9.000e-01    6.021e-05    2.989e-01  
  3.0600e-08    1.152e-04    9.000e-01    6.019e-05    2.982e-01  
  3.0700e-08    1.146e-04    9.000e-01    6.018e-05    2.975e-01  
  3.0800e-08    1.140e-04    9.000e-01    6.016e-05    2.968e-01  
  3.0900e-08    1.135e-04    9.000e-01    6.015e-05    2.962e-01  
  3.1000e-08    1.129e-04    9.000e-01    6.014e-05    2.955e-01  
  3.1100e-08    1.123e-04    9.000e-01    6.013e-05    2.948e-01  
  3.1200e-08    1.118e-04    9.000e-01    6.012e-05    2.941e-01  
  3.1300e-08    1.112e-04    9.000e-01    6.011e-05    2.934e-01  
  3.1400e-08    1.106e-04    9.000e-01    6.009e-05    2.928e-01  
  3.1500e-08    1.101e-04    9.000e-01    6.008e-05    2.921e-01  
  3.1600e-08    1.100e-04    9.000e-01    6.007e-05    2.914e-01  
  3.1700e-08    1.106e-04    9.000e-01    6.007e-05    2.908e-01  
  3.1800e-08    1.112e-04    9.000e-01    6.007e-05    2.902e-01  
  3.1900e-08    1.118e-04    9.000e-01    6.007e-05    2.896e-01  
  3.2000e-08    1.123e-04    9.000e-01    6.007e-05    2.889e-01  
  3.2100e-08    1.129e-04    9.000e-01    6.006e-05    2.883e-01  
  3.2200e-08    1.135e-04    9.000e-01    6.006e-05    2.877e-01  
  3.2300e-08    1.141e-04    9.000e-01    6.006e-05    2.871e-01  
  3.2400e-08    1.147e-04    9.000e-01    6.006e-05    2.864e-01  
  3.2500e-08    1.153e-04    9.000e-01    6.005e-05    2.858e-01  
  3.2600e-08   -5.422e-06    8.996e-01    3.549e-03    1.346e-03  
  3.2700e-08    1.132e-04    9.000e-01    6.407e-05    5.976e-05  
  3.2800e-08    1.129e-04    9.000e-01    6.406e-05    6.050e-05  
  3.2900e-08    1.099e-04    9.000e-01    3.235e-05    5.440e-05  
  3.3000e-08    1.107e-04    9.000e-01    4.062e-05    5.589e-05  
  3.3100e-08    1.117e-04    9.000e-01    5.086e-05    5.776e-05  
  3.3200e-08    1.127e-04    9.000e-01    6.111e-05    5.963e-05  
  3.3300e-08    1.137e-04    9.000e-01    7.135e-05    6.150e-05  
  3.3400e-08    1.147e-04    9.000e-01    8.159e-05    6.337e-05  
  3.3500e-08    1.151e-04    9.000e-01    8.608e-05    6.420e-05  
  3.3600e-08    1.147e-04    9.000e-01    8.187e-05    6.344e-05  
  3.3700e-08    1.143e-04    9.000e-01    7.767e-05    6.269e-05  
  3.3800e-08    1.139e-04    9.000e-01    7.346e-05    6.194e-05  
  3.3900e-08    1.135e-04    9.000e-01    6.925e-05    6.118e-05  
  3.4000e-08    1.131e-04    9.000e-01    6.505e-05    6.043e-05  
  3.4100e-08    1.126e-04    9.000e-01    6.084e-05    5.968e-05  
  3.4200e-08    1.122e-04    9.000e-01    5.663e-05    5.892e-05  
  3.4300e-08    1.118e-04    9.000e-01    5.243e-05    5.817e-05  
  3.4400e-08    1.114e-04    9.000e-01    4.822e-05    5.742e-05  
  3.4500e-08    1.110e-04    9.000e-01    4.401e-05    5.666e-05  
  3.4600e-08    1.106e-04    9.000e-01    3.981e-05    5.591e-05  
  3.4700e-08    1.101e-04    9.000e-01    3.560e-05    5.516e-05  
  3.4800e-08    1.097e-04    9.000e-01    3.139e-05    5.440e-05  
  3.4900e-08    1.124e-04    9.000e-01    5.810e-05    5.897e-05  
  3.5000e-08    1.154e-04    9.000e-01    8.721e-05    6.394e-05  
  3.5100e-08    1.145e-04    9.000e-01    7.822e-05    6.249e-05  
  3.5200e-08    1.135e-04    9.000e-01    6.922e-05    6.104e-05  
  3.5300e-08    1.126e-04    9.000e-01    6.023e-05    5.959e-05  
  3.5400e-08    1.125e-04    9.000e-01    5.945e-05    5.945e-05  
  3.5500e-08    1.125e-04    9.000e-01    5.943e-05    5.943e-05  
  3.5600e-08    1.125e-04    9.000e-01    5.942e-05    5.941e-05  
  3.5700e-08    1.125e-04    9.000e-01    5.940e-05    5.939e-05  
  3.5800e-08    1.125e-04    9.000e-01    5.938e-05    5.937e-05  
  3.5900e-08    1.125e-04    9.000e-01    5.936e-05    5.936e-05  
  3.6000e-08    1.125e-04    9.000e-01    5.934e-05    5.934e-05  
  3.6100e-08    1.125e-04    9.000e-01    5.933e-05    5.932e-05  
  3.6200e-08    1.125e-04    9.000e-01    5.931e-05    5.930e-05  
  3.6300e-08    1.125e-04    9.000e-01    5.929e-05    5.929e-05  
  3.6400e-08    1.125e-04    9.000e-01    5.930e-05    5.929e-05  
  3.6500e-08    1.125e-04    9.000e-01    5.931e-05    5.930e-05  
  3.6600e-08    1.125e-04    9.000e-01    5.932e-05    5.931e-05  
  3.6700e-08    1.125e-04    9.000e-01    5.932e-05    5.932e-05  
  3.6800e-08    1.125e-04    9.000e-01    5.933e-05    5.933e-05  
  3.6900e-08    1.125e-04    9.000e-01    5.934e-05    5.934e-05  
  3.7000e-08    1.125e-04    9.000e-01    5.935e-05    5.935e-05  
  3.7100e-08    1.125e-04    9.000e-01    5.936e-05    5.936e-05  
  3.7200e-08    1.125e-04    9.000e-01    5.937e-05    5.937e-05  
  3.7300e-08    1.125e-04    9.000e-01    5.938e-05    5.937e-05  
  3.7400e-08    1.125e-04    9.000e-01    5.938e-05    5.938e-05  
  3.7500e-08    1.125e-04    9.000e-01    5.939e-05    5.939e-05  
  3.7600e-08    1.125e-04    9.000e-01    5.940e-05    5.940e-05  
  3.7700e-08    1.125e-04    9.000e-01    5.941e-05    5.941e-05  
  3.7800e-08    1.125e-04    9.000e-01    5.942e-05    5.942e-05  
  3.7900e-08    1.125e-04    9.000e-01    5.943e-05    5.943e-05  
  3.8000e-08    1.125e-04    9.000e-01    5.944e-05    5.944e-05  
  3.8100e-08    1.125e-04    9.000e-01    5.945e-05    5.945e-05  
  3.8200e-08    1.125e-04    9.000e-01    5.945e-05    5.945e-05  
  3.8300e-08    1.125e-04    9.000e-01    5.946e-05    5.946e-05  
  3.8400e-08    1.125e-04    9.000e-01    5.945e-05    5.945e-05  
  3.8500e-08    1.125e-04    9.000e-01    5.944e-05    5.944e-05  
  3.8600e-08    1.125e-04    9.000e-01    5.944e-05    5.944e-05  
  3.8700e-08    1.125e-04    9.000e-01    5.943e-05    5.943e-05  
  3.8800e-08    1.125e-04    9.000e-01    5.942e-05    5.942e-05  
  3.8900e-08    1.125e-04    9.000e-01    5.941e-05    5.941e-05  
  3.9000e-08    1.125e-04    9.000e-01    5.940e-05    5.940e-05  
  3.9100e-08    1.125e-04    9.000e-01    5.939e-05    5.939e-05  
  3.9200e-08    1.125e-04    9.000e-01    5.938e-05    5.938e-05  
  3.9300e-08    1.125e-04    9.000e-01    5.938e-05    5.938e-05  
  3.9400e-08    1.125e-04    9.000e-01    5.937e-05    5.937e-05  
  3.9500e-08    1.125e-04    9.000e-01    5.936e-05    5.936e-05  
  3.9600e-08    1.125e-04    9.000e-01    5.935e-05    5.935e-05  
  3.9700e-08    1.125e-04    9.000e-01    5.934e-05    5.934e-05  
  3.9800e-08    1.125e-04    9.000e-01    5.933e-05    5.933e-05  
  3.9900e-08    1.125e-04    9.000e-01    5.933e-05    5.932e-05  
  4.0000e-08    1.125e-04    9.000e-01    5.932e-05    5.932e-05  
y
-----------------------------------------------
x

        time    current    
                    vdd    
  0.0000e+00   -6.048e-07  
  1.0000e-10   -6.048e-07  
  2.0000e-10   -6.048e-07  
  3.0000e-10   -6.048e-07  
  4.0000e-10   -6.048e-07  
  5.0000e-10   -6.048e-07  
  6.0000e-10   -6.048e-07  
  7.0000e-10   -6.048e-07  
  8.0000e-10   -6.048e-07  
  9.0000e-10   -6.048e-07  
  1.0000e-09   -6.048e-07  
  1.1000e-09   -6.048e-07  
  1.2000e-09   -6.048e-07  
  1.3000e-09   -6.048e-07  
  1.4000e-09   -6.048e-07  
  1.5000e-09   -6.048e-07  
  1.6000e-09   -6.048e-07  
  1.7000e-09   -6.048e-07  
  1.8000e-09   -6.048e-07  
  1.9000e-09   -6.048e-07  
  2.0000e-09   -6.048e-07  
  2.1000e-09   -6.048e-07  
  2.2000e-09   -6.048e-07  
  2.3000e-09   -6.048e-07  
  2.4000e-09   -6.048e-07  
  2.5000e-09   -6.048e-07  
  2.6000e-09   -6.048e-07  
  2.7000e-09   -6.048e-07  
  2.8000e-09   -6.048e-07  
  2.9000e-09   -6.048e-07  
  3.0000e-09   -6.048e-07  
  3.1000e-09   -6.048e-07  
  3.2000e-09   -6.048e-07  
  3.3000e-09   -6.048e-07  
  3.4000e-09   -6.048e-07  
  3.5000e-09   -6.048e-07  
  3.6000e-09   -6.048e-07  
  3.7000e-09   -6.048e-07  
  3.8000e-09   -6.048e-07  
  3.9000e-09   -6.048e-07  
  4.0000e-09   -6.048e-07  
  4.1000e-09   -6.048e-07  
  4.2000e-09   -6.048e-07  
  4.3000e-09   -6.048e-07  
  4.4000e-09   -6.048e-07  
  4.5000e-09   -6.048e-07  
  4.6000e-09   -6.048e-07  
  4.7000e-09   -6.048e-07  
  4.8000e-09   -6.048e-07  
  4.9000e-09   -6.048e-07  
  5.0000e-09   -6.048e-07  
  5.1000e-09   -5.970e-07  
  5.2000e-09   -6.045e-07  
  5.3000e-09   -6.045e-07  
  5.4000e-09   -6.045e-07  
  5.5000e-09   -6.045e-07  
  5.6000e-09   -6.045e-07  
  5.7000e-09   -6.045e-07  
  5.8000e-09   -6.045e-07  
  5.9000e-09   -6.045e-07  
  6.0000e-09   -6.045e-07  
  6.1000e-09   -6.045e-07  
  6.2000e-09   -6.045e-07  
  6.3000e-09   -6.045e-07  
  6.4000e-09   -6.045e-07  
  6.5000e-09   -6.045e-07  
  6.6000e-09   -6.045e-07  
  6.7000e-09   -6.045e-07  
  6.8000e-09   -6.045e-07  
  6.9000e-09   -6.045e-07  
  7.0000e-09   -6.045e-07  
  7.1000e-09   -6.045e-07  
  7.2000e-09   -6.045e-07  
  7.3000e-09   -6.045e-07  
  7.4000e-09   -6.045e-07  
  7.5000e-09   -6.045e-07  
  7.6000e-09   -6.002e-07  
  7.7000e-09   -6.030e-07  
  7.8000e-09   -6.031e-07  
  7.9000e-09   -6.031e-07  
  8.0000e-09   -6.031e-07  
  8.1000e-09   -6.031e-07  
  8.2000e-09   -6.030e-07  
  8.3000e-09   -6.030e-07  
  8.4000e-09   -6.030e-07  
  8.5000e-09   -6.031e-07  
  8.6000e-09   -6.031e-07  
  8.7000e-09   -6.031e-07  
  8.8000e-09   -6.031e-07  
  8.9000e-09   -6.031e-07  
  9.0000e-09   -6.031e-07  
  9.1000e-09   -6.031e-07  
  9.2000e-09   -6.031e-07  
  9.3000e-09   -6.031e-07  
  9.4000e-09   -6.031e-07  
  9.5000e-09   -6.031e-07  
  9.6000e-09   -6.031e-07  
  9.7000e-09   -6.031e-07  
  9.8000e-09   -6.031e-07  
  9.9000e-09   -6.030e-07  
  1.0000e-08   -6.030e-07  
  1.0100e-08   -6.226e-07  
  1.0200e-08   -6.048e-07  
  1.0300e-08   -6.048e-07  
  1.0400e-08   -6.048e-07  
  1.0500e-08   -6.048e-07  
  1.0600e-08   -6.048e-07  
  1.0700e-08   -6.048e-07  
  1.0800e-08   -6.048e-07  
  1.0900e-08   -6.048e-07  
  1.1000e-08   -6.048e-07  
  1.1100e-08   -6.048e-07  
  1.1200e-08   -6.048e-07  
  1.1300e-08   -6.048e-07  
  1.1400e-08   -6.048e-07  
  1.1500e-08   -6.048e-07  
  1.1600e-08   -6.048e-07  
  1.1700e-08   -6.048e-07  
  1.1800e-08   -6.048e-07  
  1.1900e-08   -6.048e-07  
  1.2000e-08   -6.048e-07  
  1.2100e-08   -6.048e-07  
  1.2200e-08   -6.048e-07  
  1.2300e-08   -6.048e-07  
  1.2400e-08   -6.048e-07  
  1.2500e-08   -6.048e-07  
  1.2600e-08   -5.957e-07  
  1.2700e-08   -6.053e-07  
  1.2800e-08   -6.053e-07  
  1.2900e-08   -6.053e-07  
  1.3000e-08   -6.053e-07  
  1.3100e-08   -6.053e-07  
  1.3200e-08   -6.053e-07  
  1.3300e-08   -6.053e-07  
  1.3400e-08   -6.053e-07  
  1.3500e-08   -6.053e-07  
  1.3600e-08   -6.052e-07  
  1.3700e-08   -6.052e-07  
  1.3800e-08   -6.052e-07  
  1.3900e-08   -6.052e-07  
  1.4000e-08   -6.051e-07  
  1.4100e-08   -6.051e-07  
  1.4200e-08   -6.050e-07  
  1.4300e-08   -6.050e-07  
  1.4400e-08   -6.050e-07  
  1.4500e-08   -6.049e-07  
  1.4600e-08   -6.049e-07  
  1.4700e-08   -6.048e-07  
  1.4800e-08   -6.048e-07  
  1.4900e-08   -6.048e-07  
  1.5000e-08   -6.047e-07  
  1.5100e-08   -5.793e-07  
  1.5200e-08   -6.041e-07  
  1.5300e-08   -6.044e-07  
  1.5400e-08   -6.045e-07  
  1.5500e-08   -6.045e-07  
  1.5600e-08   -6.045e-07  
  1.5700e-08   -6.045e-07  
  1.5800e-08   -6.045e-07  
  1.5900e-08   -6.045e-07  
  1.6000e-08   -6.045e-07  
  1.6100e-08   -6.045e-07  
  1.6200e-08   -6.045e-07  
  1.6300e-08   -6.045e-07  
  1.6400e-08   -6.045e-07  
  1.6500e-08   -6.045e-07  
  1.6600e-08   -6.045e-07  
  1.6700e-08   -6.045e-07  
  1.6800e-08   -6.045e-07  
  1.6900e-08   -6.045e-07  
  1.7000e-08   -6.045e-07  
  1.7100e-08   -6.045e-07  
  1.7200e-08   -6.045e-07  
  1.7300e-08   -6.045e-07  
  1.7400e-08   -6.045e-07  
  1.7500e-08   -6.045e-07  
  1.7600e-08    1.189e-07  
  1.7700e-08   -3.014e-09  
  1.7800e-08   -1.898e-09  
  1.7900e-08   -3.091e-09  
  1.8000e-08   -1.945e-09  
  1.8100e-08   -1.214e-09  
  1.8200e-08   -1.841e-09  
  1.8300e-08   -2.468e-09  
  1.8400e-08   -3.095e-09  
  1.8500e-08   -2.764e-09  
  1.8600e-08   -2.367e-09  
  1.8700e-08   -1.969e-09  
  1.8800e-08   -1.572e-09  
  1.8900e-08   -1.174e-09  
  1.9000e-08   -1.163e-09  
  1.9100e-08   -1.398e-09  
  1.9200e-08   -1.632e-09  
  1.9300e-08   -1.867e-09  
  1.9400e-08   -2.102e-09  
  1.9500e-08   -2.336e-09  
  1.9600e-08   -2.571e-09  
  1.9700e-08   -2.806e-09  
  1.9800e-08   -3.040e-09  
  1.9900e-08   -2.277e-09  
  2.0000e-08   -1.017e-09  
  2.0100e-08   -6.307e-08  
  2.0200e-08   -5.930e-09  
  2.0300e-08   -6.183e-09  
  2.0400e-08   -6.248e-09  
  2.0500e-08   -6.146e-09  
  2.0600e-08   -6.043e-09  
  2.0700e-08   -5.941e-09  
  2.0800e-08   -5.878e-09  
  2.0900e-08   -5.922e-09  
  2.1000e-08   -5.965e-09  
  2.1100e-08   -6.008e-09  
  2.1200e-08   -6.051e-09  
  2.1300e-08   -6.094e-09  
  2.1400e-08   -6.137e-09  
  2.1500e-08   -6.180e-09  
  2.1600e-08   -6.223e-09  
  2.1700e-08   -6.266e-09  
  2.1800e-08   -6.217e-09  
  2.1900e-08   -6.168e-09  
  2.2000e-08   -6.118e-09  
  2.2100e-08   -6.068e-09  
  2.2200e-08   -6.018e-09  
  2.2300e-08   -5.969e-09  
  2.2400e-08   -5.919e-09  
  2.2500e-08   -5.869e-09  
  2.2600e-08   -7.076e-08  
  2.2700e-08   -5.571e-09  
  2.2800e-08   -6.525e-09  
  2.2900e-08   -5.537e-09  
  2.3000e-08   -5.307e-09  
  2.3100e-08   -5.735e-09  
  2.3200e-08   -6.162e-09  
  2.3300e-08   -6.589e-09  
  2.3400e-08   -7.016e-09  
  2.3500e-08   -6.834e-09  
  2.3600e-08   -6.642e-09  
  2.3700e-08   -6.451e-09  
  2.3800e-08   -6.259e-09  
  2.3900e-08   -6.067e-09  
  2.4000e-08   -5.876e-09  
  2.4100e-08   -5.684e-09  
  2.4200e-08   -5.492e-09  
  2.4300e-08   -5.301e-09  
  2.4400e-08   -5.109e-09  
  2.4500e-08   -5.377e-09  
  2.4600e-08   -5.704e-09  
  2.4700e-08   -6.031e-09  
  2.4800e-08   -6.358e-09  
  2.4900e-08   -6.685e-09  
  2.5000e-08   -7.012e-09  
  2.5100e-08    3.409e-09  
  2.5200e-08   -6.138e-09  
  2.5300e-08   -5.968e-09  
  2.5400e-08   -6.014e-09  
  2.5500e-08   -6.066e-09  
  2.5600e-08   -6.119e-09  
  2.5700e-08   -6.154e-09  
  2.5800e-08   -6.138e-09  
  2.5900e-08   -6.121e-09  
  2.6000e-08   -6.105e-09  
  2.6100e-08   -6.089e-09  
  2.6200e-08   -6.072e-09  
  2.6300e-08   -6.056e-09  
  2.6400e-08   -6.039e-09  
  2.6500e-08   -6.023e-09  
  2.6600e-08   -6.006e-09  
  2.6700e-08   -5.990e-09  
  2.6800e-08   -5.973e-09  
  2.6900e-08   -5.972e-09  
  2.7000e-08   -6.003e-09  
  2.7100e-08   -6.034e-09  
  2.7200e-08   -6.064e-09  
  2.7300e-08   -6.095e-09  
  2.7400e-08   -6.126e-09  
  2.7500e-08   -6.157e-09  
  2.7600e-08   -2.477e-07  
  2.7700e-08   -4.355e-09  
  2.7800e-08   -3.345e-09  
  2.7900e-08   -3.470e-09  
  2.8000e-08   -3.820e-09  
  2.8100e-08   -3.219e-09  
  2.8200e-08   -2.617e-09  
  2.8300e-08   -2.796e-09  
  2.8400e-08   -3.111e-09  
  2.8500e-08   -3.427e-09  
  2.8600e-08   -3.743e-09  
  2.8700e-08   -3.623e-09  
  2.8800e-08   -3.416e-09  
  2.8900e-08   -3.209e-09  
  2.9000e-08   -3.002e-09  
  2.9100e-08   -2.796e-09  
  2.9200e-08   -2.589e-09  
  2.9300e-08   -2.500e-09  
  2.9400e-08   -2.681e-09  
  2.9500e-08   -2.861e-09  
  2.9600e-08   -3.042e-09  
  2.9700e-08   -3.223e-09  
  2.9800e-08   -3.404e-09  
  2.9900e-08   -3.584e-09  
  3.0000e-08   -3.765e-09  
  3.0100e-08   -2.100e-09  
  3.0200e-08   -3.001e-09  
  3.0300e-08   -3.196e-09  
  3.0400e-08   -3.122e-09  
  3.0500e-08   -3.047e-09  
  3.0600e-08   -2.987e-09  
  3.0700e-08   -3.010e-09  
  3.0800e-08   -3.032e-09  
  3.0900e-08   -3.054e-09  
  3.1000e-08   -3.077e-09  
  3.1100e-08   -3.099e-09  
  3.1200e-08   -3.121e-09  
  3.1300e-08   -3.144e-09  
  3.1400e-08   -3.166e-09  
  3.1500e-08   -3.188e-09  
  3.1600e-08   -3.191e-09  
  3.1700e-08   -3.168e-09  
  3.1800e-08   -3.144e-09  
  3.1900e-08   -3.121e-09  
  3.2000e-08   -3.098e-09  
  3.2100e-08   -3.074e-09  
  3.2200e-08   -3.051e-09  
  3.2300e-08   -3.028e-09  
  3.2400e-08   -3.005e-09  
  3.2500e-08   -2.981e-09  
  3.2600e-08   -1.681e-08  
  3.2700e-08   -3.105e-09  
  3.2800e-08   -3.086e-09  
  3.2900e-08   -3.073e-09  
  3.3000e-08   -3.078e-09  
  3.3100e-08   -3.085e-09  
  3.3200e-08   -3.091e-09  
  3.3300e-08   -3.097e-09  
  3.3400e-08   -3.103e-09  
  3.3500e-08   -3.106e-09  
  3.3600e-08   -3.103e-09  
  3.3700e-08   -3.100e-09  
  3.3800e-08   -3.097e-09  
  3.3900e-08   -3.094e-09  
  3.4000e-08   -3.091e-09  
  3.4100e-08   -3.088e-09  
  3.4200e-08   -3.085e-09  
  3.4300e-08   -3.082e-09  
  3.4400e-08   -3.079e-09  
  3.4500e-08   -3.076e-09  
  3.4600e-08   -3.073e-09  
  3.4700e-08   -3.070e-09  
  3.4800e-08   -3.067e-09  
  3.4900e-08   -3.090e-09  
  3.5000e-08   -3.115e-09  
  3.5100e-08   -3.105e-09  
  3.5200e-08   -3.096e-09  
  3.5300e-08   -3.086e-09  
  3.5400e-08   -3.086e-09  
  3.5500e-08   -3.086e-09  
  3.5600e-08   -3.086e-09  
  3.5700e-08   -3.086e-09  
  3.5800e-08   -3.086e-09  
  3.5900e-08   -3.086e-09  
  3.6000e-08   -3.086e-09  
  3.6100e-08   -3.087e-09  
  3.6200e-08   -3.087e-09  
  3.6300e-08   -3.087e-09  
  3.6400e-08   -3.087e-09  
  3.6500e-08   -3.087e-09  
  3.6600e-08   -3.086e-09  
  3.6700e-08   -3.086e-09  
  3.6800e-08   -3.086e-09  
  3.6900e-08   -3.086e-09  
  3.7000e-08   -3.086e-09  
  3.7100e-08   -3.086e-09  
  3.7200e-08   -3.086e-09  
  3.7300e-08   -3.086e-09  
  3.7400e-08   -3.085e-09  
  3.7500e-08   -3.085e-09  
  3.7600e-08   -3.085e-09  
  3.7700e-08   -3.085e-09  
  3.7800e-08   -3.085e-09  
  3.7900e-08   -3.085e-09  
  3.8000e-08   -3.085e-09  
  3.8100e-08   -3.085e-09  
  3.8200e-08   -3.084e-09  
  3.8300e-08   -3.084e-09  
  3.8400e-08   -3.084e-09  
  3.8500e-08   -3.085e-09  
  3.8600e-08   -3.085e-09  
  3.8700e-08   -3.085e-09  
  3.8800e-08   -3.085e-09  
  3.8900e-08   -3.085e-09  
  3.9000e-08   -3.085e-09  
  3.9100e-08   -3.085e-09  
  3.9200e-08   -3.085e-09  
  3.9300e-08   -3.085e-09  
  3.9400e-08   -3.086e-09  
  3.9500e-08   -3.086e-09  
  3.9600e-08   -3.086e-09  
  3.9700e-08   -3.086e-09  
  3.9800e-08   -3.086e-09  
  3.9900e-08   -3.086e-09  
  4.0000e-08   -3.086e-09  
y
-----------------------------------------------

          ***** job concluded
1****** HSPICE -- H-2013.03 64-BIT (Mar  7 2013) win64 ******                   
 ******  
 'inverter'

  ******  job statistics summary tnom=  25.000 temp=  25.000 *****

  ******  HSPICE Threads Information  ******

  Command Line Threads Count :     1
  Available CPU Count        :     4
  Actual Threads Count       :     1


  ******  Circuit Statistics  ******
  # nodes       =     519 # elements   =    1176
  # resistors   =     216 # capacitors =     522 # inductors   =       0
  # mutual_inds =       0 # vccs       =     144 # vcvs        =     252
  # cccs        =       0 # ccvs       =       0 # volt_srcs   =      42
  # curr_srcs   =       0 # diodes     =       0 # bjts        =       0
  # jfets       =       0 # mosfets    =       0 # U elements  =       0
  # T elements  =       0 # W elements =       0 # B elements  =       0
  # S elements  =       0 # P elements =       0 # va device   =       0
  # vector_srcs =       0 # N elements =       0


  ******  Runtime Statistics (seconds)  ******

  analysis           time    # points   tot. iter  conv.iter
  op point           0.69           1          29
  transient         20.62         401         915         227 rev=        19
  readin             0.04
  errchk             0.27
  setup              0.01
  output             0.00


           peak memory used         52.81 megabytes
           total cpu time           21.63 seconds
           total elapsed time       21.65 seconds
           job started at     23:22:35 02/28/2018
           job ended   at     23:22:57 02/28/2018


  lic: Release hspice token(s) 
 lic: total license checkout elapse time:        0.02(s)
