 ****** HSPICE -- H-2013.03 64-BIT (Mar  7 2013) win64 ******                   
  Copyright (C) 2013 Synopsys, Inc. All Rights Reserved.                        
  Unpublished-rights reserved under US copyright laws.
  This program is protected by law and is subject to the
  terms and conditions of the license agreement from Synopsys.
  Use of this program is your acceptance to be bound by the
  license agreement. HSPICE is the trademark of Synopsys, Inc.
  Input File: sram180nm.sp                                                      
  Command line options: -i sram180nm.sp -o sram180nm.lis
  lic:  
  lic: FLEXlm: v10.9.8 
  lic: USER:   Dell                 HOSTNAME: DESKTOP-O3DHVG1 
  lic: HOSTID: "28f10e041fd4 a0d37a293ca4 a0d37a293ca5" PID:      3228 
  lic: Using FLEXlm license file: 
  lic: C:\synopsys\Hspice_H-2013.03\lic.dat\lic.lic 
  lic: Checkout 1 hspice 
  lic: License/Maintenance for hspice will expire on 31-dec-2019/2019.12 
  lic: NODE LOCKED license on hostid "28f10e041fd4 a0d37a293ca4 a0d37a293ca5" 
  lic:   
 Init: read install configuration file: C:\synopsys\Hspice_H-2013.03\meta.cfg
 scientific notation:
 a=10**-18  f=10**-15  p=10**-12  n=10**-9  u=10**-6
 m=10**-3   k=10**3    x=10**6    g=10**9 
1****** HSPICE -- H-2013.03 64-BIT (Mar  7 2013) win64 ******                   
 ******  
 'inverter'

  ******  circuit name directory
 circuit number to circuit name directory
   number circuitname                     definition         multiplier
        0 main circuit


 circuit parameter definitions
  parameter          =  value 

     0:temp                                                    = 2.700e+01      
     0:m_cnt                                                   = 1.000e+00      
     0:wg                                                      = 4.000e-09      
     0:cb                                                      = 4.000e-11      
     0:lg                                                      = 1.800e-07      
     0:lgef                                                    = 2.000e-07      
     0:vfn                                                     = 0.000e+00      
     0:vfp                                                     = 0.000e+00      
     0:m                                                       = 0.000e+00      
     0:n                                                       = 1.900e+01      
     0:hox                                                     = 4.000e-09      
     1:tox                                                     = 4.000e-09      
     1:csub                                                    = 4.000e-11      
     1:pitch                                                   = 2.000e-08      
     1:n1                                                      = 0.000e+00      
     1:n2                                                      = 1.900e+01      
     1:vfbp                                                    = 0.000e+00      
     1:kgate                                                   = 1.600e+01      
     1:dout                                                    = 0.000e+00      
     1:sout                                                    = 0.000e+00      
     1:tubes                                                   = 1.000e+00      
     1:lch                                                     = 1.800e-07      
     1:lgeff                                                   = 2.000e-07      
     1:lss                                                     = 3.200e-08      
     1:ldd                                                     = 3.200e-08      
     2:tox                                                     = 4.000e-09      
     2:csub                                                    = 4.000e-11      
     2:pitch                                                   = 2.000e-08      
     2:n1                                                      = 0.000e+00      
     2:n2                                                      = 1.000e+01      
     2:vfbp                                                    = 0.000e+00      
     2:kgate                                                   = 1.600e+01      
     2:dout                                                    = 0.000e+00      
     2:sout                                                    = 0.000e+00      
     2:tubes                                                   = 1.000e+00      
     2:lch                                                     = 1.800e-07      
     2:lgeff                                                   = 2.000e-07      
     2:lss                                                     = 3.200e-08      
     2:ldd                                                     = 3.200e-08      
     3:tox                                                     = 4.000e-09      
     3:csub                                                    = 4.000e-11      
     3:pitch                                                   = 2.000e-08      
     3:n1                                                      = 0.000e+00      
     3:n2                                                      = 1.300e+01      
     3:vfbp                                                    = 0.000e+00      
     3:kgate                                                   = 1.600e+01      
     3:dout                                                    = 0.000e+00      
     3:sout                                                    = 0.000e+00      
     3:tubes                                                   = 1.000e+00      
     3:lch                                                     = 1.800e-07      
     3:lgeff                                                   = 2.000e-07      
     3:lss                                                     = 3.200e-08      
     3:ldd                                                     = 3.200e-08      
     4:tox                                                     = 4.000e-09      
     4:csub                                                    = 4.000e-11      
     4:vfbn                                                    = 0.000e+00      
     4:pitch                                                   = 2.000e-08      
     4:n1                                                      = 0.000e+00      
     4:n2                                                      = 1.300e+01      
     4:kgate                                                   = 1.600e+01      
     4:dout                                                    = 0.000e+00      
     4:sout                                                    = 0.000e+00      
     4:tubes                                                   = 1.000e+00      
     4:lch                                                     = 1.800e-07      
     4:lgeff                                                   = 2.000e-07      
     4:lss                                                     = 3.200e-08      
     4:ldd                                                     = 3.200e-08      
     5:tox                                                     = 4.000e-09      
     5:csub                                                    = 4.000e-11      
     5:vfbn                                                    = 0.000e+00      
     5:pitch                                                   = 2.000e-08      
     5:n1                                                      = 0.000e+00      
     5:n2                                                      = 1.900e+01      
     5:kgate                                                   = 1.600e+01      
     5:dout                                                    = 0.000e+00      
     5:sout                                                    = 0.000e+00      
     5:tubes                                                   = 1.000e+00      
     5:lch                                                     = 1.800e-07      
     5:lgeff                                                   = 2.000e-07      
     5:lss                                                     = 3.200e-08      
     5:ldd                                                     = 3.200e-08      
     6:tox                                                     = 4.000e-09      
     6:csub                                                    = 4.000e-11      
     6:vfbn                                                    = 0.000e+00      
     6:pitch                                                   = 2.000e-08      
     6:n1                                                      = 0.000e+00      
     6:n2                                                      = 1.000e+01      
     6:kgate                                                   = 1.600e+01      
     6:dout                                                    = 0.000e+00      
     6:sout                                                    = 0.000e+00      
     6:tubes                                                   = 1.000e+00      
     6:lch                                                     = 1.800e-07      
     6:lgeff                                                   = 2.000e-07      
     6:lss                                                     = 3.200e-08      
     6:ldd                                                     = 3.200e-08      




 constants  - tnom         kt           vt           gapsi        ni
            2.9815e+02   4.1163e-21   2.5692e-02   1.1156e+00   1.2565e+16 
  **info** (sram180nm.sp:130) DC voltage reset to initial transient source value              in source        0:vrwl                new dc=  0.0000D+00

 **warning**  associated with encrypted block(s) were suppressed due to encrypted content

1****** HSPICE -- H-2013.03 64-BIT (Mar  7 2013) win64 ******                   
 ******  
 'inverter'

  ******  circuit element summary tnom=  25.000 temp=  25.000 *****


 **** independent sources

     name         node1        node2      dc volt    ac mag    ac phase    type
  vdd  vdd               0                  9.000e-01  0.000e+00  0.000e+00 dc   
  vrwl  rwl               0                  0.000e+00  0.000e+00  0.000e+00 pwl  
                time        value

                 0.000e+00    0.000e+00
                 1.250e-08    0.000e+00
                 1.260e-08    9.000e-01
                 1.500e-08    9.000e-01
                 1.510e-08    0.000e+00
                 2.250e-08    0.000e+00
                 2.260e-08    9.000e-01
                 2.500e-08    9.000e-01
                 2.510e-08    0.000e+00
                 3.250e-08    0.000e+00
                 3.260e-08    9.000e-01
                 3.500e-08    9.000e-01


  vrwlb  rwlb              0                  9.000e-01  0.000e+00  0.000e+00 pwl  
                time        value

                 0.000e+00    9.000e-01
                 1.250e-08    9.000e-01
                 1.260e-08    0.000e+00
                 1.500e-08    0.000e+00
                 1.510e-08    9.000e-01
                 2.250e-08    9.000e-01
                 2.260e-08    0.000e+00
                 2.500e-08    0.000e+00
                 2.510e-08    9.000e-01
                 3.250e-08    9.000e-01
                 3.260e-08    0.000e+00
                 3.500e-08    0.000e+00


  vwbl  wbl               0                  0.000e+00  0.000e+00  0.000e+00 pwl  
                time        value

                 0.000e+00    0.000e+00
                 5.000e-09    0.000e+00
                 5.100e-09    4.500e-01
                 1.000e-08    4.500e-01
                 1.010e-08    0.000e+00
                 1.500e-08    0.000e+00
                 1.510e-08    9.000e-01
                 2.000e-08    9.000e-01
                 2.010e-08    0.000e+00
                 3.000e-08    0.000e+00
                 4.000e-08    0.000e+00


  vwwl  wwl               0                  0.000e+00  0.000e+00  0.000e+00 pwl  
                time        value

                 0.000e+00    0.000e+00
                 7.500e-09    0.000e+00
                 7.600e-09    9.000e-01
                 1.000e-08    9.000e-01
                 1.010e-08    0.000e+00
                 1.750e-08    0.000e+00
                 1.760e-08    9.000e-01
                 2.000e-08    9.000e-01
                 2.010e-08    0.000e+00
                 2.750e-08    0.000e+00
                 2.760e-08    9.000e-01
                 3.000e-08    9.000e-01
                 3.010e-08    0.000e+00
                 4.000e-08    0.000e+00


  vwwlb  wwlb              0                  9.000e-01  0.000e+00  0.000e+00 pwl  
                time        value

                 0.000e+00    9.000e-01
                 7.500e-09    9.000e-01
                 7.600e-09    0.000e+00
                 1.000e-08    0.000e+00
                 1.010e-08    9.000e-01
                 1.750e-08    9.000e-01
                 1.760e-08    0.000e+00
                 2.000e-08    0.000e+00
                 2.010e-08    9.000e-01
                 2.750e-08    9.000e-01
                 2.760e-08    0.000e+00
                 3.000e-08    0.000e+00
                 3.010e-08    9.000e-01
                 4.000e-08    9.000e-01




 **** subcircuit calls
    name        subcircuit         external nodes


         0:xcnt7    pcnfet          0:vdd         0:q           0:n2      
                               0:n2      


         0:xcnt8    pcnfet          0:vdd         0:q           0:qb      
                               0:qb      


         0:xcnt6    pcnfet          0:qb          0:qb          0:n2      
                               0:n2      


         0:xcnt5    ncnfet          0:qb          0:qb          0:n1      
                               0:n1      


         0:xcnt3    ncnfet          0:n1          0:q           0:0       
                               0:0       


         0:xcnt4    ncnfet          0:qb          0:q           0:0       
                               0:0       


         0:xcnt14   pcnfet          0:vdd         0:qb          0:q       
                               0:q       


         0:xcnt13   pcnfet          0:vdd         0:qb          0:n4      
                               0:n4      


         0:xcnt12   pcnfet          0:q           0:q           0:n4      
                               0:n4      


         0:xcnt11   ncnfet          0:q           0:q           0:n3      
                               0:n3      


         0:xcnt10   ncnfet          0:q           0:qb          0:0       
                               0:0       


         0:xcnt9    ncnfet          0:n3          0:qb          0:0       
                               0:0       


         0:xcnt2    pcnfet          0:q           0:wwlb        0:wbl     
                               0:wbl     


         0:xcnt1    ncnfet          0:wbl         0:wwl         0:q       
                               0:q       


         0:xcnt16   pcnfet          0:vdd         0:qb          0:n5      
                               0:n5      


         0:xcnt15   ncnfet          0:n5          0:qb          0:0       
                               0:0       


         0:xcnt18   pcnfet          0:rbl         0:rwlb        0:n5      
                               0:n5      


         0:xcnt17   ncnfet          0:n5          0:rwl         0:rbl     
                               0:rbl     


  
1****** HSPICE -- H-2013.03 64-BIT (Mar  7 2013) win64 ******                   
 ******  
 'inverter'

  ******  element node table
                                                                                      
 0                vdd              vrwl             vrwlb            vwbl             
                  vwwl             vwwlb                                              
 rwl              vrwl                                                                
 rwlb             vrwlb                                                               
 vdd              vdd                                                                 
 wbl              vwbl                                                                
 wwl              vwwl                                                                
 wwlb             vwwlb                                                               
  **warning** PIVOT option setting is simplified, pivot = 13 is obsolete,
              automatically switch to pivot = 1.
 *****************************************************************
 ******  option summary
 ******
 runlvl  = 3         bypass  = 2         
  Opening plot unit= 79
 file=sram180nm.pa0

 no convergence with standard algorithm,  trying damped pseudo-transient

  *** initial damped pseudo transient completed. ***
  *** final try started ***
 **info** remove gshunt failed
  **info** try to load final result like nodeset

 **info** gmin ramping for pseudo-tran
 final try failed.

  *** final try succeeded *** 
1****** HSPICE -- H-2013.03 64-BIT (Mar  7 2013) win64 ******                   
 ******  
 'inverter'

  ******  operating point information tnom=  25.000 temp=  25.000 *****
 ***** operating point status is voltage   simulation time is   0.000e+00
     node    =voltage       node    =voltage       node    =voltage

 + 0:n1      = 1.313e-02  0:n2      = 8.866e-01  0:n3      = 1.313e-02
 + 0:n4      = 8.866e-01  0:n5      = 1.207e-04  0:q       = 4.495e-01
 + 0:qb      = 4.495e-01  0:rbl     = 1.193e-04  0:rwl     = 0.000e+00
 + 0:rwlb    = 9.000e-01  0:vdd     = 9.000e-01  0:wbl     = 0.000e+00
 + 0:wwl     = 0.000e+00  0:wwlb    = 9.000e-01

 ******  
 'inverter'

  ******  transient analysis tnom=  25.000 temp=  25.000 *****
x

        time    voltage      voltage      voltage      voltage    
                     q           qb           rwl         rwlb    
  0.0000e+00    4.495e-01    4.495e-01    0.000e+00    9.000e-01  
  1.0000e-10    4.495e-01    4.495e-01    0.000e+00    9.000e-01  
  2.0000e-10    4.495e-01    4.495e-01    0.000e+00    9.000e-01  
  3.0000e-10    4.495e-01    4.495e-01    0.000e+00    9.000e-01  
  4.0000e-10    4.495e-01    4.495e-01    0.000e+00    9.000e-01  
  5.0000e-10    4.495e-01    4.495e-01    0.000e+00    9.000e-01  
  6.0000e-10    4.495e-01    4.495e-01    0.000e+00    9.000e-01  
  7.0000e-10    4.495e-01    4.495e-01    0.000e+00    9.000e-01  
  8.0000e-10    4.495e-01    4.495e-01    0.000e+00    9.000e-01  
  9.0000e-10    4.495e-01    4.495e-01    0.000e+00    9.000e-01  
  1.0000e-09    4.495e-01    4.495e-01    0.000e+00    9.000e-01  
  1.1000e-09    4.495e-01    4.495e-01    0.000e+00    9.000e-01  
  1.2000e-09    4.495e-01    4.495e-01    0.000e+00    9.000e-01  
  1.3000e-09    4.495e-01    4.495e-01    0.000e+00    9.000e-01  
  1.4000e-09    4.495e-01    4.495e-01    0.000e+00    9.000e-01  
  1.5000e-09    4.495e-01    4.495e-01    0.000e+00    9.000e-01  
  1.6000e-09    4.495e-01    4.495e-01    0.000e+00    9.000e-01  
  1.7000e-09    4.495e-01    4.495e-01    0.000e+00    9.000e-01  
  1.8000e-09    4.495e-01    4.495e-01    0.000e+00    9.000e-01  
  1.9000e-09    4.495e-01    4.495e-01    0.000e+00    9.000e-01  
  2.0000e-09    4.495e-01    4.495e-01    0.000e+00    9.000e-01  
  2.1000e-09    4.495e-01    4.495e-01    0.000e+00    9.000e-01  
  2.2000e-09    4.495e-01    4.495e-01    0.000e+00    9.000e-01  
  2.3000e-09    4.495e-01    4.495e-01    0.000e+00    9.000e-01  
  2.4000e-09    4.495e-01    4.495e-01    0.000e+00    9.000e-01  
  2.5000e-09    4.495e-01    4.495e-01    0.000e+00    9.000e-01  
  2.6000e-09    4.495e-01    4.495e-01    0.000e+00    9.000e-01  
  2.7000e-09    4.495e-01    4.495e-01    0.000e+00    9.000e-01  
  2.8000e-09    4.495e-01    4.495e-01    0.000e+00    9.000e-01  
  2.9000e-09    4.495e-01    4.495e-01    0.000e+00    9.000e-01  
  3.0000e-09    4.495e-01    4.495e-01    0.000e+00    9.000e-01  
  3.1000e-09    4.495e-01    4.495e-01    0.000e+00    9.000e-01  
  3.2000e-09    4.495e-01    4.495e-01    0.000e+00    9.000e-01  
  3.3000e-09    4.495e-01    4.495e-01    0.000e+00    9.000e-01  
  3.4000e-09    4.495e-01    4.495e-01    0.000e+00    9.000e-01  
  3.5000e-09    4.495e-01    4.495e-01    0.000e+00    9.000e-01  
  3.6000e-09    4.495e-01    4.495e-01    0.000e+00    9.000e-01  
  3.7000e-09    4.495e-01    4.495e-01    0.000e+00    9.000e-01  
  3.8000e-09    4.495e-01    4.495e-01    0.000e+00    9.000e-01  
  3.9000e-09    4.495e-01    4.495e-01    0.000e+00    9.000e-01  
  4.0000e-09    4.495e-01    4.495e-01    0.000e+00    9.000e-01  
  4.1000e-09    4.495e-01    4.495e-01    0.000e+00    9.000e-01  
  4.2000e-09    4.495e-01    4.495e-01    0.000e+00    9.000e-01  
  4.3000e-09    4.495e-01    4.495e-01    0.000e+00    9.000e-01  
  4.4000e-09    4.495e-01    4.495e-01    0.000e+00    9.000e-01  
  4.5000e-09    4.495e-01    4.495e-01    0.000e+00    9.000e-01  
  4.6000e-09    4.495e-01    4.495e-01    0.000e+00    9.000e-01  
  4.7000e-09    4.495e-01    4.495e-01    0.000e+00    9.000e-01  
  4.8000e-09    4.495e-01    4.495e-01    0.000e+00    9.000e-01  
  4.9000e-09    4.495e-01    4.495e-01    0.000e+00    9.000e-01  
  5.0000e-09    4.495e-01    4.495e-01    0.000e+00    9.000e-01  
  5.1000e-09    4.509e-01    4.494e-01    0.000e+00    9.000e-01  
  5.2000e-09    4.495e-01    4.495e-01    0.000e+00    9.000e-01  
  5.3000e-09    4.495e-01    4.495e-01    0.000e+00    9.000e-01  
  5.4000e-09    4.495e-01    4.495e-01    0.000e+00    9.000e-01  
  5.5000e-09    4.495e-01    4.495e-01    0.000e+00    9.000e-01  
  5.6000e-09    4.495e-01    4.495e-01    0.000e+00    9.000e-01  
  5.7000e-09    4.495e-01    4.495e-01    0.000e+00    9.000e-01  
  5.8000e-09    4.495e-01    4.495e-01    0.000e+00    9.000e-01  
  5.9000e-09    4.495e-01    4.495e-01    0.000e+00    9.000e-01  
  6.0000e-09    4.495e-01    4.495e-01    0.000e+00    9.000e-01  
  6.1000e-09    4.495e-01    4.495e-01    0.000e+00    9.000e-01  
  6.2000e-09    4.495e-01    4.495e-01    0.000e+00    9.000e-01  
  6.3000e-09    4.495e-01    4.495e-01    0.000e+00    9.000e-01  
  6.4000e-09    4.495e-01    4.495e-01    0.000e+00    9.000e-01  
  6.5000e-09    4.495e-01    4.495e-01    0.000e+00    9.000e-01  
  6.6000e-09    4.495e-01    4.495e-01    0.000e+00    9.000e-01  
  6.7000e-09    4.495e-01    4.495e-01    0.000e+00    9.000e-01  
  6.8000e-09    4.495e-01    4.495e-01    0.000e+00    9.000e-01  
  6.9000e-09    4.495e-01    4.495e-01    0.000e+00    9.000e-01  
  7.0000e-09    4.495e-01    4.495e-01    0.000e+00    9.000e-01  
  7.1000e-09    4.495e-01    4.495e-01    0.000e+00    9.000e-01  
  7.2000e-09    4.495e-01    4.495e-01    0.000e+00    9.000e-01  
  7.3000e-09    4.495e-01    4.495e-01    0.000e+00    9.000e-01  
  7.4000e-09    4.495e-01    4.495e-01    0.000e+00    9.000e-01  
  7.5000e-09    4.495e-01    4.495e-01    0.000e+00    9.000e-01  
  7.6000e-09    4.532e-01    4.490e-01    0.000e+00    9.000e-01  
  7.7000e-09    4.499e-01    4.495e-01    0.000e+00    9.000e-01  
  7.8000e-09    4.499e-01    4.495e-01    0.000e+00    9.000e-01  
  7.9000e-09    4.499e-01    4.495e-01    0.000e+00    9.000e-01  
  8.0000e-09    4.499e-01    4.495e-01    0.000e+00    9.000e-01  
  8.1000e-09    4.499e-01    4.495e-01    0.000e+00    9.000e-01  
  8.2000e-09    4.499e-01    4.495e-01    0.000e+00    9.000e-01  
  8.3000e-09    4.499e-01    4.495e-01    0.000e+00    9.000e-01  
  8.4000e-09    4.499e-01    4.495e-01    0.000e+00    9.000e-01  
  8.5000e-09    4.499e-01    4.495e-01    0.000e+00    9.000e-01  
  8.6000e-09    4.499e-01    4.495e-01    0.000e+00    9.000e-01  
  8.7000e-09    4.499e-01    4.495e-01    0.000e+00    9.000e-01  
  8.8000e-09    4.499e-01    4.495e-01    0.000e+00    9.000e-01  
  8.9000e-09    4.499e-01    4.495e-01    0.000e+00    9.000e-01  
  9.0000e-09    4.499e-01    4.495e-01    0.000e+00    9.000e-01  
  9.1000e-09    4.499e-01    4.495e-01    0.000e+00    9.000e-01  
  9.2000e-09    4.499e-01    4.495e-01    0.000e+00    9.000e-01  
  9.3000e-09    4.499e-01    4.495e-01    0.000e+00    9.000e-01  
  9.4000e-09    4.499e-01    4.495e-01    0.000e+00    9.000e-01  
  9.5000e-09    4.499e-01    4.495e-01    0.000e+00    9.000e-01  
  9.6000e-09    4.499e-01    4.495e-01    0.000e+00    9.000e-01  
  9.7000e-09    4.499e-01    4.495e-01    0.000e+00    9.000e-01  
  9.8000e-09    4.499e-01    4.495e-01    0.000e+00    9.000e-01  
  9.9000e-09    4.499e-01    4.495e-01    0.000e+00    9.000e-01  
  1.0000e-08    4.499e-01    4.495e-01    0.000e+00    9.000e-01  
  1.0100e-08    4.419e-01    4.499e-01    0.000e+00    9.000e-01  
  1.0200e-08    4.495e-01    4.495e-01    0.000e+00    9.000e-01  
  1.0300e-08    4.496e-01    4.496e-01    0.000e+00    9.000e-01  
  1.0400e-08    4.495e-01    4.495e-01    0.000e+00    9.000e-01  
  1.0500e-08    4.495e-01    4.495e-01    0.000e+00    9.000e-01  
  1.0600e-08    4.495e-01    4.495e-01    0.000e+00    9.000e-01  
  1.0700e-08    4.495e-01    4.495e-01    0.000e+00    9.000e-01  
  1.0800e-08    4.495e-01    4.495e-01    0.000e+00    9.000e-01  
  1.0900e-08    4.495e-01    4.495e-01    0.000e+00    9.000e-01  
  1.1000e-08    4.496e-01    4.496e-01    0.000e+00    9.000e-01  
  1.1100e-08    4.496e-01    4.496e-01    0.000e+00    9.000e-01  
  1.1200e-08    4.496e-01    4.496e-01    0.000e+00    9.000e-01  
  1.1300e-08    4.496e-01    4.495e-01    0.000e+00    9.000e-01  
  1.1400e-08    4.495e-01    4.495e-01    0.000e+00    9.000e-01  
  1.1500e-08    4.495e-01    4.495e-01    0.000e+00    9.000e-01  
  1.1600e-08    4.495e-01    4.495e-01    0.000e+00    9.000e-01  
  1.1700e-08    4.495e-01    4.495e-01    0.000e+00    9.000e-01  
  1.1800e-08    4.495e-01    4.495e-01    0.000e+00    9.000e-01  
  1.1900e-08    4.495e-01    4.495e-01    0.000e+00    9.000e-01  
  1.2000e-08    4.495e-01    4.495e-01    0.000e+00    9.000e-01  
  1.2100e-08    4.495e-01    4.495e-01    0.000e+00    9.000e-01  
  1.2200e-08    4.495e-01    4.495e-01    0.000e+00    9.000e-01  
  1.2300e-08    4.495e-01    4.495e-01    0.000e+00    9.000e-01  
  1.2400e-08    4.495e-01    4.495e-01    0.000e+00    9.000e-01  
  1.2500e-08    4.496e-01    4.496e-01    0.000e+00    9.000e-01  
  1.2600e-08    4.492e-01    4.526e-01    9.000e-01    0.000e+00  
  1.2700e-08    4.495e-01    4.495e-01    9.000e-01    0.000e+00  
  1.2800e-08    4.495e-01    4.495e-01    9.000e-01    0.000e+00  
  1.2900e-08    4.495e-01    4.495e-01    9.000e-01    0.000e+00  
  1.3000e-08    4.495e-01    4.495e-01    9.000e-01    0.000e+00  
  1.3100e-08    4.495e-01    4.495e-01    9.000e-01    0.000e+00  
  1.3200e-08    4.495e-01    4.495e-01    9.000e-01    0.000e+00  
  1.3300e-08    4.495e-01    4.495e-01    9.000e-01    0.000e+00  
  1.3400e-08    4.495e-01    4.495e-01    9.000e-01    0.000e+00  
  1.3500e-08    4.495e-01    4.495e-01    9.000e-01    0.000e+00  
  1.3600e-08    4.495e-01    4.495e-01    9.000e-01    0.000e+00  
  1.3700e-08    4.495e-01    4.495e-01    9.000e-01    0.000e+00  
  1.3800e-08    4.495e-01    4.495e-01    9.000e-01    0.000e+00  
  1.3900e-08    4.495e-01    4.495e-01    9.000e-01    0.000e+00  
  1.4000e-08    4.495e-01    4.495e-01    9.000e-01    0.000e+00  
  1.4100e-08    4.495e-01    4.495e-01    9.000e-01    0.000e+00  
  1.4200e-08    4.495e-01    4.495e-01    9.000e-01    0.000e+00  
  1.4300e-08    4.495e-01    4.495e-01    9.000e-01    0.000e+00  
  1.4400e-08    4.495e-01    4.495e-01    9.000e-01    0.000e+00  
  1.4500e-08    4.495e-01    4.495e-01    9.000e-01    0.000e+00  
  1.4600e-08    4.495e-01    4.495e-01    9.000e-01    0.000e+00  
  1.4700e-08    4.495e-01    4.495e-01    9.000e-01    0.000e+00  
  1.4800e-08    4.495e-01    4.495e-01    9.000e-01    0.000e+00  
  1.4900e-08    4.495e-01    4.495e-01    9.000e-01    0.000e+00  
  1.5000e-08    4.495e-01    4.495e-01    9.000e-01    0.000e+00  
  1.5100e-08    4.528e-01    4.474e-01    0.000e+00    9.000e-01  
  1.5200e-08    4.495e-01    4.499e-01    0.000e+00    9.000e-01  
  1.5300e-08    4.495e-01    4.497e-01    0.000e+00    9.000e-01  
  1.5400e-08    4.495e-01    4.496e-01    0.000e+00    9.000e-01  
  1.5500e-08    4.495e-01    4.496e-01    0.000e+00    9.000e-01  
  1.5600e-08    4.495e-01    4.495e-01    0.000e+00    9.000e-01  
  1.5700e-08    4.495e-01    4.495e-01    0.000e+00    9.000e-01  
  1.5800e-08    4.495e-01    4.495e-01    0.000e+00    9.000e-01  
  1.5900e-08    4.495e-01    4.495e-01    0.000e+00    9.000e-01  
  1.6000e-08    4.495e-01    4.495e-01    0.000e+00    9.000e-01  
  1.6100e-08    4.495e-01    4.495e-01    0.000e+00    9.000e-01  
  1.6200e-08    4.495e-01    4.495e-01    0.000e+00    9.000e-01  
  1.6300e-08    4.495e-01    4.495e-01    0.000e+00    9.000e-01  
  1.6400e-08    4.495e-01    4.495e-01    0.000e+00    9.000e-01  
  1.6500e-08    4.495e-01    4.495e-01    0.000e+00    9.000e-01  
  1.6600e-08    4.495e-01    4.495e-01    0.000e+00    9.000e-01  
  1.6700e-08    4.495e-01    4.495e-01    0.000e+00    9.000e-01  
  1.6800e-08    4.495e-01    4.495e-01    0.000e+00    9.000e-01  
  1.6900e-08    4.495e-01    4.495e-01    0.000e+00    9.000e-01  
  1.7000e-08    4.495e-01    4.495e-01    0.000e+00    9.000e-01  
  1.7100e-08    4.495e-01    4.495e-01    0.000e+00    9.000e-01  
  1.7200e-08    4.495e-01    4.495e-01    0.000e+00    9.000e-01  
  1.7300e-08    4.495e-01    4.495e-01    0.000e+00    9.000e-01  
  1.7400e-08    4.495e-01    4.495e-01    0.000e+00    9.000e-01  
  1.7500e-08    4.495e-01    4.495e-01    0.000e+00    9.000e-01  
  1.7600e-08    8.959e-01    1.356e-02    0.000e+00    9.000e-01  
  1.7700e-08    8.992e-01    3.562e-03    0.000e+00    9.000e-01  
  1.7800e-08    9.000e-01    2.558e-04    0.000e+00    9.000e-01  
  1.7900e-08    8.999e-01   -4.754e-05    0.000e+00    9.000e-01  
  1.8000e-08    9.000e-01    1.937e-04    0.000e+00    9.000e-01  
  1.8100e-08    9.000e-01    1.549e-04    0.000e+00    9.000e-01  
  1.8200e-08    9.000e-01    7.201e-06    0.000e+00    9.000e-01  
  1.8300e-08    8.999e-01   -1.405e-04    0.000e+00    9.000e-01  
  1.8400e-08    8.999e-01   -8.282e-05    0.000e+00    9.000e-01  
  1.8500e-08    9.000e-01    1.096e-05    0.000e+00    9.000e-01  
  1.8600e-08    9.000e-01    1.047e-04    0.000e+00    9.000e-01  
  1.8700e-08    9.001e-01    1.985e-04    0.000e+00    9.000e-01  
  1.8800e-08    9.001e-01    1.994e-04    0.000e+00    9.000e-01  
  1.8900e-08    9.000e-01    1.434e-04    0.000e+00    9.000e-01  
  1.9000e-08    9.000e-01    8.732e-05    0.000e+00    9.000e-01  
  1.9100e-08    9.000e-01    3.127e-05    0.000e+00    9.000e-01  
  1.9200e-08    9.000e-01   -2.479e-05    0.000e+00    9.000e-01  
  1.9300e-08    8.999e-01   -8.084e-05    0.000e+00    9.000e-01  
  1.9400e-08    8.999e-01   -1.369e-04    0.000e+00    9.000e-01  
  1.9500e-08    8.999e-01   -1.470e-04    0.000e+00    9.000e-01  
  1.9600e-08    8.999e-01   -7.224e-05    0.000e+00    9.000e-01  
  1.9700e-08    9.000e-01    2.545e-06    0.000e+00    9.000e-01  
  1.9800e-08    9.000e-01    7.733e-05    0.000e+00    9.000e-01  
  1.9900e-08    9.001e-01    1.521e-04    0.000e+00    9.000e-01  
  2.0000e-08    9.001e-01    2.269e-04    0.000e+00    9.000e-01  
  2.0100e-08    8.951e-01    1.093e-03    0.000e+00    9.000e-01  
  2.0200e-08    8.999e-01    6.922e-06    0.000e+00    9.000e-01  
  2.0300e-08    8.999e-01    3.107e-05    0.000e+00    9.000e-01  
  2.0400e-08    8.999e-01    1.934e-05    0.000e+00    9.000e-01  
  2.0500e-08    8.999e-01    2.438e-05    0.000e+00    9.000e-01  
  2.0600e-08    8.999e-01    2.941e-05    0.000e+00    9.000e-01  
  2.0700e-08    8.998e-01    3.112e-05    0.000e+00    9.000e-01  
  2.0800e-08    8.998e-01    2.981e-05    0.000e+00    9.000e-01  
  2.0900e-08    8.999e-01    2.850e-05    0.000e+00    9.000e-01  
  2.1000e-08    8.999e-01    2.718e-05    0.000e+00    9.000e-01  
  2.1100e-08    8.999e-01    2.587e-05    0.000e+00    9.000e-01  
  2.1200e-08    8.999e-01    2.456e-05    0.000e+00    9.000e-01  
  2.1300e-08    8.999e-01    2.325e-05    0.000e+00    9.000e-01  
  2.1400e-08    8.999e-01    2.193e-05    0.000e+00    9.000e-01  
  2.1500e-08    8.999e-01    2.062e-05    0.000e+00    9.000e-01  
  2.1600e-08    8.999e-01    2.113e-05    0.000e+00    9.000e-01  
  2.1700e-08    8.999e-01    2.208e-05    0.000e+00    9.000e-01  
  2.1800e-08    8.999e-01    2.303e-05    0.000e+00    9.000e-01  
  2.1900e-08    8.999e-01    2.399e-05    0.000e+00    9.000e-01  
  2.2000e-08    8.999e-01    2.494e-05    0.000e+00    9.000e-01  
  2.2100e-08    8.999e-01    2.589e-05    0.000e+00    9.000e-01  
  2.2200e-08    8.999e-01    2.685e-05    0.000e+00    9.000e-01  
  2.2300e-08    8.999e-01    2.780e-05    0.000e+00    9.000e-01  
  2.2400e-08    8.998e-01    2.875e-05    0.000e+00    9.000e-01  
  2.2500e-08    8.998e-01    2.971e-05    0.000e+00    9.000e-01  
  2.2600e-08    8.996e-01   -4.694e-04    9.000e-01    0.000e+00  
  2.2700e-08    8.999e-01    2.311e-05    9.000e-01    0.000e+00  
  2.2800e-08    8.999e-01    1.115e-05    9.000e-01    0.000e+00  
  2.2900e-08    8.999e-01    1.838e-05    9.000e-01    0.000e+00  
  2.3000e-08    8.999e-01    3.623e-05    9.000e-01    0.000e+00  
  2.3100e-08    8.999e-01    4.095e-05    9.000e-01    0.000e+00  
  2.3200e-08    8.999e-01    3.216e-05    9.000e-01    0.000e+00  
  2.3300e-08    8.999e-01    2.337e-05    9.000e-01    0.000e+00  
  2.3400e-08    8.999e-01    1.458e-05    9.000e-01    0.000e+00  
  2.3500e-08    8.999e-01    5.785e-06    9.000e-01    0.000e+00  
  2.3600e-08    8.999e-01    8.937e-06    9.000e-01    0.000e+00  
  2.3700e-08    8.999e-01    1.231e-05    9.000e-01    0.000e+00  
  2.3800e-08    8.999e-01    1.569e-05    9.000e-01    0.000e+00  
  2.3900e-08    8.999e-01    1.906e-05    9.000e-01    0.000e+00  
  2.4000e-08    8.999e-01    2.244e-05    9.000e-01    0.000e+00  
  2.4100e-08    8.999e-01    2.581e-05    9.000e-01    0.000e+00  
  2.4200e-08    8.999e-01    2.919e-05    9.000e-01    0.000e+00  
  2.4300e-08    8.999e-01    3.256e-05    9.000e-01    0.000e+00  
  2.4400e-08    8.999e-01    3.594e-05    9.000e-01    0.000e+00  
  2.4500e-08    8.999e-01    3.932e-05    9.000e-01    0.000e+00  
  2.4600e-08    8.999e-01    4.269e-05    9.000e-01    0.000e+00  
  2.4700e-08    8.999e-01    3.853e-05    9.000e-01    0.000e+00  
  2.4800e-08    8.999e-01    2.791e-05    9.000e-01    0.000e+00  
  2.4900e-08    8.999e-01    1.728e-05    9.000e-01    0.000e+00  
  2.5000e-08    8.999e-01    6.657e-06    9.000e-01    0.000e+00  
  2.5100e-08    8.998e-01   -4.357e-04    0.000e+00    9.000e-01  
  2.5200e-08    8.999e-01    2.411e-05    0.000e+00    9.000e-01  
  2.5300e-08    8.999e-01    2.881e-05    0.000e+00    9.000e-01  
  2.5400e-08    8.999e-01    2.428e-05    0.000e+00    9.000e-01  
  2.5500e-08    8.999e-01    1.975e-05    0.000e+00    9.000e-01  
  2.5600e-08    8.999e-01    2.080e-05    0.000e+00    9.000e-01  
  2.5700e-08    8.999e-01    2.258e-05    0.000e+00    9.000e-01  
  2.5800e-08    8.999e-01    2.437e-05    0.000e+00    9.000e-01  
  2.5900e-08    8.999e-01    2.616e-05    0.000e+00    9.000e-01  
  2.6000e-08    8.999e-01    2.794e-05    0.000e+00    9.000e-01  
  2.6100e-08    8.999e-01    2.973e-05    0.000e+00    9.000e-01  
  2.6200e-08    8.999e-01    3.070e-05    0.000e+00    9.000e-01  
  2.6300e-08    8.999e-01    2.980e-05    0.000e+00    9.000e-01  
  2.6400e-08    8.999e-01    2.890e-05    0.000e+00    9.000e-01  
  2.6500e-08    8.999e-01    2.800e-05    0.000e+00    9.000e-01  
  2.6600e-08    8.999e-01    2.710e-05    0.000e+00    9.000e-01  
  2.6700e-08    8.999e-01    2.620e-05    0.000e+00    9.000e-01  
  2.6800e-08    8.999e-01    2.531e-05    0.000e+00    9.000e-01  
  2.6900e-08    8.999e-01    2.441e-05    0.000e+00    9.000e-01  
  2.7000e-08    8.999e-01    2.351e-05    0.000e+00    9.000e-01  
  2.7100e-08    8.999e-01    2.261e-05    0.000e+00    9.000e-01  
  2.7200e-08    8.999e-01    2.171e-05    0.000e+00    9.000e-01  
  2.7300e-08    8.999e-01    2.081e-05    0.000e+00    9.000e-01  
  2.7400e-08    8.999e-01    1.992e-05    0.000e+00    9.000e-01  
  2.7500e-08    8.999e-01    1.902e-05    0.000e+00    9.000e-01  
  2.7600e-08    3.713e-01   -1.376e-01    0.000e+00    9.000e-01  
  2.7700e-08    4.457e-03    8.590e-01    0.000e+00    9.000e-01  
  2.7800e-08    8.140e-05    8.998e-01    0.000e+00    9.000e-01  
  2.7900e-08    3.873e-05    8.999e-01    0.000e+00    9.000e-01  
  2.8000e-08    2.815e-05    9.000e-01    0.000e+00    9.000e-01  
  2.8100e-08    8.955e-07    8.999e-01    0.000e+00    9.000e-01  
  2.8200e-08    2.928e-05    9.000e-01    0.000e+00    9.000e-01  
  2.8300e-08    2.147e-06    8.999e-01    0.000e+00    9.000e-01  
  2.8400e-08    3.330e-05    9.000e-01    0.000e+00    9.000e-01  
  2.8500e-08    5.006e-06    9.000e-01    0.000e+00    9.000e-01  
  2.8600e-08    5.983e-06    9.000e-01    0.000e+00    9.000e-01  
  2.8700e-08    2.779e-05    9.000e-01    0.000e+00    9.000e-01  
  2.8800e-08    1.435e-05    9.000e-01    0.000e+00    9.000e-01  
  2.8900e-08   -4.446e-06    9.000e-01    0.000e+00    9.000e-01  
  2.9000e-08    4.157e-06    9.000e-01    0.000e+00    9.000e-01  
  2.9100e-08    1.904e-05    9.000e-01    0.000e+00    9.000e-01  
  2.9200e-08    2.419e-05    9.000e-01    0.000e+00    9.000e-01  
  2.9300e-08    1.153e-05    9.000e-01    0.000e+00    9.000e-01  
  2.9400e-08   -1.142e-06    9.000e-01    0.000e+00    9.000e-01  
  2.9500e-08   -4.476e-06    9.000e-01    0.000e+00    9.000e-01  
  2.9600e-08    5.749e-06    9.000e-01    0.000e+00    9.000e-01  
  2.9700e-08    1.597e-05    9.000e-01    0.000e+00    9.000e-01  
  2.9800e-08    2.620e-05    9.000e-01    0.000e+00    9.000e-01  
  2.9900e-08    1.052e-05    9.000e-01    0.000e+00    9.000e-01  
  3.0000e-08   -8.681e-06    9.000e-01    0.000e+00    9.000e-01  
  3.0100e-08   -6.085e-03    9.002e-01    0.000e+00    9.000e-01  
  3.0200e-08    1.383e-05    8.999e-01    0.000e+00    9.000e-01  
  3.0300e-08    3.693e-05    9.000e-01    0.000e+00    9.000e-01  
  3.0400e-08    1.841e-05    9.000e-01    0.000e+00    9.000e-01  
  3.0500e-08    1.522e-05    9.000e-01    0.000e+00    9.000e-01  
  3.0600e-08    2.157e-05    9.000e-01    0.000e+00    9.000e-01  
  3.0700e-08    2.792e-05    9.000e-01    0.000e+00    9.000e-01  
  3.0800e-08    3.428e-05    9.000e-01    0.000e+00    9.000e-01  
  3.0900e-08    4.001e-05    9.000e-01    0.000e+00    9.000e-01  
  3.1000e-08    3.750e-05    9.000e-01    0.000e+00    9.000e-01  
  3.1100e-08    3.499e-05    9.000e-01    0.000e+00    9.000e-01  
  3.1200e-08    3.248e-05    9.000e-01    0.000e+00    9.000e-01  
  3.1300e-08    2.996e-05    9.000e-01    0.000e+00    9.000e-01  
  3.1400e-08    2.745e-05    9.000e-01    0.000e+00    9.000e-01  
  3.1500e-08    2.494e-05    9.000e-01    0.000e+00    9.000e-01  
  3.1600e-08    2.243e-05    9.000e-01    0.000e+00    9.000e-01  
  3.1700e-08    1.992e-05    9.000e-01    0.000e+00    9.000e-01  
  3.1800e-08    1.740e-05    9.000e-01    0.000e+00    9.000e-01  
  3.1900e-08    1.489e-05    9.000e-01    0.000e+00    9.000e-01  
  3.2000e-08    1.238e-05    9.000e-01    0.000e+00    9.000e-01  
  3.2100e-08    1.417e-05    9.000e-01    0.000e+00    9.000e-01  
  3.2200e-08    2.031e-05    9.000e-01    0.000e+00    9.000e-01  
  3.2300e-08    2.645e-05    9.000e-01    0.000e+00    9.000e-01  
  3.2400e-08    3.259e-05    9.000e-01    0.000e+00    9.000e-01  
  3.2500e-08    3.873e-05    9.000e-01    0.000e+00    9.000e-01  
  3.2600e-08   -1.325e-04    8.978e-01    9.000e-01    0.000e+00  
  3.2700e-08    2.705e-05    9.000e-01    9.000e-01    0.000e+00  
  3.2800e-08    2.614e-05    9.000e-01    9.000e-01    0.000e+00  
  3.2900e-08    2.579e-05    9.000e-01    9.000e-01    0.000e+00  
  3.3000e-08    2.432e-05    9.000e-01    9.000e-01    0.000e+00  
  3.3100e-08    2.390e-05    9.000e-01    9.000e-01    0.000e+00  
  3.3200e-08    2.429e-05    9.000e-01    9.000e-01    0.000e+00  
  3.3300e-08    2.469e-05    9.000e-01    9.000e-01    0.000e+00  
  3.3400e-08    2.509e-05    9.000e-01    9.000e-01    0.000e+00  
  3.3500e-08    2.548e-05    9.000e-01    9.000e-01    0.000e+00  
  3.3600e-08    2.588e-05    9.000e-01    9.000e-01    0.000e+00  
  3.3700e-08    2.628e-05    9.000e-01    9.000e-01    0.000e+00  
  3.3800e-08    2.629e-05    9.000e-01    9.000e-01    0.000e+00  
  3.3900e-08    2.608e-05    9.000e-01    9.000e-01    0.000e+00  
  3.4000e-08    2.586e-05    9.000e-01    9.000e-01    0.000e+00  
  3.4100e-08    2.565e-05    9.000e-01    9.000e-01    0.000e+00  
  3.4200e-08    2.544e-05    9.000e-01    9.000e-01    0.000e+00  
  3.4300e-08    2.522e-05    9.000e-01    9.000e-01    0.000e+00  
  3.4400e-08    2.501e-05    9.000e-01    9.000e-01    0.000e+00  
  3.4500e-08    2.480e-05    9.000e-01    9.000e-01    0.000e+00  
  3.4600e-08    2.458e-05    9.000e-01    9.000e-01    0.000e+00  
  3.4700e-08    2.437e-05    9.000e-01    9.000e-01    0.000e+00  
  3.4800e-08    2.416e-05    9.000e-01    9.000e-01    0.000e+00  
  3.4900e-08    2.394e-05    9.000e-01    9.000e-01    0.000e+00  
  3.5000e-08    2.373e-05    9.000e-01    9.000e-01    0.000e+00  
  3.5100e-08    2.386e-05    9.000e-01    9.000e-01    0.000e+00  
  3.5200e-08    2.398e-05    9.000e-01    9.000e-01    0.000e+00  
  3.5300e-08    2.411e-05    9.000e-01    9.000e-01    0.000e+00  
  3.5400e-08    2.424e-05    9.000e-01    9.000e-01    0.000e+00  
  3.5500e-08    2.437e-05    9.000e-01    9.000e-01    0.000e+00  
  3.5600e-08    2.450e-05    9.000e-01    9.000e-01    0.000e+00  
  3.5700e-08    2.463e-05    9.000e-01    9.000e-01    0.000e+00  
  3.5800e-08    2.475e-05    9.000e-01    9.000e-01    0.000e+00  
  3.5900e-08    2.488e-05    9.000e-01    9.000e-01    0.000e+00  
  3.6000e-08    2.501e-05    9.000e-01    9.000e-01    0.000e+00  
  3.6100e-08    2.501e-05    9.000e-01    9.000e-01    0.000e+00  
  3.6200e-08    2.501e-05    9.000e-01    9.000e-01    0.000e+00  
  3.6300e-08    2.501e-05    9.000e-01    9.000e-01    0.000e+00  
  3.6400e-08    2.501e-05    9.000e-01    9.000e-01    0.000e+00  
  3.6500e-08    2.501e-05    9.000e-01    9.000e-01    0.000e+00  
  3.6600e-08    2.501e-05    9.000e-01    9.000e-01    0.000e+00  
  3.6700e-08    2.502e-05    9.000e-01    9.000e-01    0.000e+00  
  3.6800e-08    2.502e-05    9.000e-01    9.000e-01    0.000e+00  
  3.6900e-08    2.502e-05    9.000e-01    9.000e-01    0.000e+00  
  3.7000e-08    2.502e-05    9.000e-01    9.000e-01    0.000e+00  
  3.7100e-08    2.502e-05    9.000e-01    9.000e-01    0.000e+00  
  3.7200e-08    2.502e-05    9.000e-01    9.000e-01    0.000e+00  
  3.7300e-08    2.502e-05    9.000e-01    9.000e-01    0.000e+00  
  3.7400e-08    2.502e-05    9.000e-01    9.000e-01    0.000e+00  
  3.7500e-08    2.502e-05    9.000e-01    9.000e-01    0.000e+00  
  3.7600e-08    2.502e-05    9.000e-01    9.000e-01    0.000e+00  
  3.7700e-08    2.502e-05    9.000e-01    9.000e-01    0.000e+00  
  3.7800e-08    2.503e-05    9.000e-01    9.000e-01    0.000e+00  
  3.7900e-08    2.503e-05    9.000e-01    9.000e-01    0.000e+00  
  3.8000e-08    2.503e-05    9.000e-01    9.000e-01    0.000e+00  
  3.8100e-08    2.503e-05    9.000e-01    9.000e-01    0.000e+00  
  3.8200e-08    2.502e-05    9.000e-01    9.000e-01    0.000e+00  
  3.8300e-08    2.502e-05    9.000e-01    9.000e-01    0.000e+00  
  3.8400e-08    2.502e-05    9.000e-01    9.000e-01    0.000e+00  
  3.8500e-08    2.502e-05    9.000e-01    9.000e-01    0.000e+00  
  3.8600e-08    2.502e-05    9.000e-01    9.000e-01    0.000e+00  
  3.8700e-08    2.502e-05    9.000e-01    9.000e-01    0.000e+00  
  3.8800e-08    2.502e-05    9.000e-01    9.000e-01    0.000e+00  
  3.8900e-08    2.502e-05    9.000e-01    9.000e-01    0.000e+00  
  3.9000e-08    2.501e-05    9.000e-01    9.000e-01    0.000e+00  
  3.9100e-08    2.501e-05    9.000e-01    9.000e-01    0.000e+00  
  3.9200e-08    2.501e-05    9.000e-01    9.000e-01    0.000e+00  
  3.9300e-08    2.501e-05    9.000e-01    9.000e-01    0.000e+00  
  3.9400e-08    2.501e-05    9.000e-01    9.000e-01    0.000e+00  
  3.9500e-08    2.501e-05    9.000e-01    9.000e-01    0.000e+00  
  3.9600e-08    2.501e-05    9.000e-01    9.000e-01    0.000e+00  
  3.9700e-08    2.500e-05    9.000e-01    9.000e-01    0.000e+00  
  3.9800e-08    2.500e-05    9.000e-01    9.000e-01    0.000e+00  
  3.9900e-08    2.500e-05    9.000e-01    9.000e-01    0.000e+00  
  4.0000e-08    2.500e-05    9.000e-01    9.000e-01    0.000e+00  
y
x

        time    voltage    
                    rbl    
  0.0000e+00    1.193e-04  
  1.0000e-10    1.193e-04  
  2.0000e-10    1.193e-04  
  3.0000e-10    1.193e-04  
  4.0000e-10    1.193e-04  
  5.0000e-10    1.193e-04  
  6.0000e-10    1.193e-04  
  7.0000e-10    1.193e-04  
  8.0000e-10    1.193e-04  
  9.0000e-10    1.193e-04  
  1.0000e-09    1.193e-04  
  1.1000e-09    1.193e-04  
  1.2000e-09    1.193e-04  
  1.3000e-09    1.193e-04  
  1.4000e-09    1.193e-04  
  1.5000e-09    1.193e-04  
  1.6000e-09    1.193e-04  
  1.7000e-09    1.193e-04  
  1.8000e-09    1.193e-04  
  1.9000e-09    1.193e-04  
  2.0000e-09    1.193e-04  
  2.1000e-09    1.193e-04  
  2.2000e-09    1.193e-04  
  2.3000e-09    1.193e-04  
  2.4000e-09    1.193e-04  
  2.5000e-09    1.193e-04  
  2.6000e-09    1.193e-04  
  2.7000e-09    1.193e-04  
  2.8000e-09    1.193e-04  
  2.9000e-09    1.193e-04  
  3.0000e-09    1.193e-04  
  3.1000e-09    1.193e-04  
  3.2000e-09    1.193e-04  
  3.3000e-09    1.193e-04  
  3.4000e-09    1.193e-04  
  3.5000e-09    1.193e-04  
  3.6000e-09    1.193e-04  
  3.7000e-09    1.193e-04  
  3.8000e-09    1.193e-04  
  3.9000e-09    1.193e-04  
  4.0000e-09    1.193e-04  
  4.1000e-09    1.193e-04  
  4.2000e-09    1.193e-04  
  4.3000e-09    1.193e-04  
  4.4000e-09    1.193e-04  
  4.5000e-09    1.193e-04  
  4.6000e-09    1.193e-04  
  4.7000e-09    1.193e-04  
  4.8000e-09    1.193e-04  
  4.9000e-09    1.193e-04  
  5.0000e-09    1.193e-04  
  5.1000e-09    1.082e-04  
  5.2000e-09    1.216e-04  
  5.3000e-09    1.218e-04  
  5.4000e-09    1.187e-04  
  5.5000e-09    1.191e-04  
  5.6000e-09    1.195e-04  
  5.7000e-09    1.198e-04  
  5.8000e-09    1.198e-04  
  5.9000e-09    1.196e-04  
  6.0000e-09    1.194e-04  
  6.1000e-09    1.192e-04  
  6.2000e-09    1.191e-04  
  6.3000e-09    1.189e-04  
  6.4000e-09    1.187e-04  
  6.5000e-09    1.185e-04  
  6.6000e-09    1.183e-04  
  6.7000e-09    1.181e-04  
  6.8000e-09    1.180e-04  
  6.9000e-09    1.182e-04  
  7.0000e-09    1.185e-04  
  7.1000e-09    1.188e-04  
  7.2000e-09    1.190e-04  
  7.3000e-09    1.193e-04  
  7.4000e-09    1.196e-04  
  7.5000e-09    1.198e-04  
  7.6000e-09    6.473e-05  
  7.7000e-09    1.294e-04  
  7.8000e-09    1.230e-04  
  7.9000e-09    1.216e-04  
  8.0000e-09    1.204e-04  
  8.1000e-09    1.199e-04  
  8.2000e-09    1.194e-04  
  8.3000e-09    1.189e-04  
  8.4000e-09    1.184e-04  
  8.5000e-09    1.179e-04  
  8.6000e-09    1.176e-04  
  8.7000e-09    1.177e-04  
  8.8000e-09    1.178e-04  
  8.9000e-09    1.179e-04  
  9.0000e-09    1.180e-04  
  9.1000e-09    1.181e-04  
  9.2000e-09    1.182e-04  
  9.3000e-09    1.183e-04  
  9.4000e-09    1.184e-04  
  9.5000e-09    1.185e-04  
  9.6000e-09    1.186e-04  
  9.7000e-09    1.187e-04  
  9.8000e-09    1.188e-04  
  9.9000e-09    1.189e-04  
  1.0000e-08    1.190e-04  
  1.0100e-08    1.610e-04  
  1.0200e-08    1.019e-04  
  1.0300e-08    1.133e-04  
  1.0400e-08    1.141e-04  
  1.0500e-08    1.128e-04  
  1.0600e-08    1.148e-04  
  1.0700e-08    1.168e-04  
  1.0800e-08    1.188e-04  
  1.0900e-08    1.208e-04  
  1.1000e-08    1.227e-04  
  1.1100e-08    1.232e-04  
  1.1200e-08    1.225e-04  
  1.1300e-08    1.219e-04  
  1.1400e-08    1.212e-04  
  1.1500e-08    1.206e-04  
  1.1600e-08    1.199e-04  
  1.1700e-08    1.193e-04  
  1.1800e-08    1.187e-04  
  1.1900e-08    1.180e-04  
  1.2000e-08    1.174e-04  
  1.2100e-08    1.167e-04  
  1.2200e-08    1.161e-04  
  1.2300e-08    1.154e-04  
  1.2400e-08    1.184e-04  
  1.2500e-08    1.226e-04  
  1.2600e-08    3.908e-01  
  1.2700e-08    3.863e-01  
  1.2800e-08    3.819e-01  
  1.2900e-08    3.775e-01  
  1.3000e-08    3.730e-01  
  1.3100e-08    3.686e-01  
  1.3200e-08    3.641e-01  
  1.3300e-08    3.596e-01  
  1.3400e-08    3.551e-01  
  1.3500e-08    3.505e-01  
  1.3600e-08    3.460e-01  
  1.3700e-08    3.415e-01  
  1.3800e-08    3.370e-01  
  1.3900e-08    3.324e-01  
  1.4000e-08    3.277e-01  
  1.4100e-08    3.229e-01  
  1.4200e-08    3.181e-01  
  1.4300e-08    3.133e-01  
  1.4400e-08    3.085e-01  
  1.4500e-08    3.037e-01  
  1.4600e-08    2.989e-01  
  1.4700e-08    2.941e-01  
  1.4800e-08    2.893e-01  
  1.4900e-08    2.845e-01  
  1.5000e-08    2.797e-01  
  1.5100e-08   -2.561e-01  
  1.5200e-08   -1.225e-01  
  1.5300e-08   -9.935e-02  
  1.5400e-08   -8.744e-02  
  1.5500e-08   -7.959e-02  
  1.5600e-08   -7.321e-02  
  1.5700e-08   -6.900e-02  
  1.5800e-08   -6.527e-02  
  1.5900e-08   -6.155e-02  
  1.6000e-08   -5.912e-02  
  1.6100e-08   -5.687e-02  
  1.6200e-08   -5.463e-02  
  1.6300e-08   -5.239e-02  
  1.6400e-08   -5.039e-02  
  1.6500e-08   -4.903e-02  
  1.6600e-08   -4.767e-02  
  1.6700e-08   -4.631e-02  
  1.6800e-08   -4.495e-02  
  1.6900e-08   -4.359e-02  
  1.7000e-08   -4.223e-02  
  1.7100e-08   -4.087e-02  
  1.7200e-08   -3.978e-02  
  1.7300e-08   -3.883e-02  
  1.7400e-08   -3.789e-02  
  1.7500e-08   -3.694e-02  
  1.7600e-08   -8.619e-02  
  1.7700e-08    2.395e-01  
  1.7800e-08    2.401e-01  
  1.7900e-08    2.405e-01  
  1.8000e-08    2.410e-01  
  1.8100e-08    2.415e-01  
  1.8200e-08    2.419e-01  
  1.8300e-08    2.423e-01  
  1.8400e-08    2.427e-01  
  1.8500e-08    2.432e-01  
  1.8600e-08    2.437e-01  
  1.8700e-08    2.441e-01  
  1.8800e-08    2.446e-01  
  1.8900e-08    2.450e-01  
  1.9000e-08    2.455e-01  
  1.9100e-08    2.459e-01  
  1.9200e-08    2.463e-01  
  1.9300e-08    2.468e-01  
  1.9400e-08    2.472e-01  
  1.9500e-08    2.476e-01  
  1.9600e-08    2.481e-01  
  1.9700e-08    2.486e-01  
  1.9800e-08    2.490e-01  
  1.9900e-08    2.495e-01  
  2.0000e-08    2.499e-01  
  2.0100e-08    2.503e-01  
  2.0200e-08    2.508e-01  
  2.0300e-08    2.512e-01  
  2.0400e-08    2.517e-01  
  2.0500e-08    2.521e-01  
  2.0600e-08    2.526e-01  
  2.0700e-08    2.530e-01  
  2.0800e-08    2.534e-01  
  2.0900e-08    2.539e-01  
  2.1000e-08    2.543e-01  
  2.1100e-08    2.548e-01  
  2.1200e-08    2.552e-01  
  2.1300e-08    2.557e-01  
  2.1400e-08    2.561e-01  
  2.1500e-08    2.565e-01  
  2.1600e-08    2.570e-01  
  2.1700e-08    2.574e-01  
  2.1800e-08    2.579e-01  
  2.1900e-08    2.583e-01  
  2.2000e-08    2.588e-01  
  2.2100e-08    2.592e-01  
  2.2200e-08    2.597e-01  
  2.2300e-08    2.601e-01  
  2.2400e-08    2.605e-01  
  2.2500e-08    2.610e-01  
  2.2600e-08    8.780e-01  
  2.2700e-08    9.000e-01  
  2.2800e-08    8.999e-01  
  2.2900e-08    9.000e-01  
  2.3000e-08    9.001e-01  
  2.3100e-08    9.001e-01  
  2.3200e-08    9.000e-01  
  2.3300e-08    9.000e-01  
  2.3400e-08    8.999e-01  
  2.3500e-08    8.999e-01  
  2.3600e-08    8.999e-01  
  2.3700e-08    8.999e-01  
  2.3800e-08    9.000e-01  
  2.3900e-08    9.000e-01  
  2.4000e-08    9.000e-01  
  2.4100e-08    9.000e-01  
  2.4200e-08    9.000e-01  
  2.4300e-08    9.000e-01  
  2.4400e-08    9.000e-01  
  2.4500e-08    9.001e-01  
  2.4600e-08    9.001e-01  
  2.4700e-08    9.001e-01  
  2.4800e-08    9.000e-01  
  2.4900e-08    9.000e-01  
  2.5000e-08    8.999e-01  
  2.5100e-08    8.254e-01  
  2.5200e-08    8.246e-01  
  2.5300e-08    8.249e-01  
  2.5400e-08    8.252e-01  
  2.5500e-08    8.255e-01  
  2.5600e-08    8.257e-01  
  2.5700e-08    8.260e-01  
  2.5800e-08    8.263e-01  
  2.5900e-08    8.266e-01  
  2.6000e-08    8.269e-01  
  2.6100e-08    8.271e-01  
  2.6200e-08    8.274e-01  
  2.6300e-08    8.277e-01  
  2.6400e-08    8.279e-01  
  2.6500e-08    8.282e-01  
  2.6600e-08    8.285e-01  
  2.6700e-08    8.287e-01  
  2.6800e-08    8.290e-01  
  2.6900e-08    8.293e-01  
  2.7000e-08    8.295e-01  
  2.7100e-08    8.298e-01  
  2.7200e-08    8.301e-01  
  2.7300e-08    8.303e-01  
  2.7400e-08    8.306e-01  
  2.7500e-08    8.309e-01  
  2.7600e-08    8.284e-01  
  2.7700e-08    5.494e-01  
  2.7800e-08    5.461e-01  
  2.7900e-08    5.442e-01  
  2.8000e-08    5.423e-01  
  2.8100e-08    5.402e-01  
  2.8200e-08    5.388e-01  
  2.8300e-08    5.368e-01  
  2.8400e-08    5.355e-01  
  2.8500e-08    5.335e-01  
  2.8600e-08    5.319e-01  
  2.8700e-08    5.306e-01  
  2.8800e-08    5.289e-01  
  2.8900e-08    5.271e-01  
  2.9000e-08    5.258e-01  
  2.9100e-08    5.245e-01  
  2.9200e-08    5.231e-01  
  2.9300e-08    5.216e-01  
  2.9400e-08    5.200e-01  
  2.9500e-08    5.186e-01  
  2.9600e-08    5.175e-01  
  2.9700e-08    5.163e-01  
  2.9800e-08    5.151e-01  
  2.9900e-08    5.137e-01  
  3.0000e-08    5.122e-01  
  3.0100e-08    5.112e-01  
  3.0200e-08    5.100e-01  
  3.0300e-08    5.088e-01  
  3.0400e-08    5.077e-01  
  3.0500e-08    5.066e-01  
  3.0600e-08    5.055e-01  
  3.0700e-08    5.044e-01  
  3.0800e-08    5.033e-01  
  3.0900e-08    5.022e-01  
  3.1000e-08    5.012e-01  
  3.1100e-08    5.002e-01  
  3.1200e-08    4.992e-01  
  3.1300e-08    4.983e-01  
  3.1400e-08    4.973e-01  
  3.1500e-08    4.963e-01  
  3.1600e-08    4.953e-01  
  3.1700e-08    4.944e-01  
  3.1800e-08    4.934e-01  
  3.1900e-08    4.924e-01  
  3.2000e-08    4.914e-01  
  3.2100e-08    4.905e-01  
  3.2200e-08    4.897e-01  
  3.2300e-08    4.888e-01  
  3.2400e-08    4.879e-01  
  3.2500e-08    4.870e-01  
  3.2600e-08    4.354e-02  
  3.2700e-08    2.497e-05  
  3.2800e-08   -1.892e-05  
  3.2900e-08   -7.445e-06  
  3.3000e-08    1.768e-05  
  3.3100e-08    2.421e-05  
  3.3200e-08    1.609e-05  
  3.3300e-08    7.962e-06  
  3.3400e-08    0.000e+00  
  3.3500e-08   -8.286e-06  
  3.3600e-08   -1.641e-05  
  3.3700e-08   -2.453e-05  
  3.3800e-08   -2.469e-05  
  3.3900e-08   -2.025e-05  
  3.4000e-08   -1.582e-05  
  3.4100e-08   -1.138e-05  
  3.4200e-08   -6.948e-06  
  3.4300e-08   -2.513e-06  
  3.4400e-08    1.922e-06  
  3.4500e-08    6.357e-06  
  3.4600e-08    1.079e-05  
  3.4700e-08    1.523e-05  
  3.4800e-08    1.966e-05  
  3.4900e-08    2.410e-05  
  3.5000e-08    2.853e-05  
  3.5100e-08    2.574e-05  
  3.5200e-08    2.294e-05  
  3.5300e-08    2.015e-05  
  3.5400e-08    1.735e-05  
  3.5500e-08    1.456e-05  
  3.5600e-08    1.176e-05  
  3.5700e-08    8.965e-06  
  3.5800e-08    6.170e-06  
  3.5900e-08    3.375e-06  
  3.6000e-08    5.798e-07  
  3.6100e-08    5.772e-07  
  3.6200e-08    5.747e-07  
  3.6300e-08    5.722e-07  
  3.6400e-08    5.697e-07  
  3.6500e-08    5.671e-07  
  3.6600e-08    5.646e-07  
  3.6700e-08    5.621e-07  
  3.6800e-08    5.596e-07  
  3.6900e-08    5.570e-07  
  3.7000e-08    5.545e-07  
  3.7100e-08    5.520e-07  
  3.7200e-08    5.495e-07  
  3.7300e-08    5.469e-07  
  3.7400e-08    5.444e-07  
  3.7500e-08    5.419e-07  
  3.7600e-08    5.394e-07  
  3.7700e-08    5.369e-07  
  3.7800e-08    5.343e-07  
  3.7900e-08    5.318e-07  
  3.8000e-08    5.293e-07  
  3.8100e-08    5.318e-07  
  3.8200e-08    5.344e-07  
  3.8300e-08    5.369e-07  
  3.8400e-08    5.394e-07  
  3.8500e-08    5.420e-07  
  3.8600e-08    5.445e-07  
  3.8700e-08    5.470e-07  
  3.8800e-08    5.496e-07  
  3.8900e-08    5.521e-07  
  3.9000e-08    5.546e-07  
  3.9100e-08    5.572e-07  
  3.9200e-08    5.597e-07  
  3.9300e-08    5.623e-07  
  3.9400e-08    5.648e-07  
  3.9500e-08    5.673e-07  
  3.9600e-08    5.699e-07  
  3.9700e-08    5.724e-07  
  3.9800e-08    5.749e-07  
  3.9900e-08    5.775e-07  
  4.0000e-08    5.800e-07  
y
-----------------------------------------------
x

        time    current    
                    vdd    
  0.0000e+00   -6.725e-07  
  1.0000e-10   -6.725e-07  
  2.0000e-10   -6.725e-07  
  3.0000e-10   -6.725e-07  
  4.0000e-10   -6.725e-07  
  5.0000e-10   -6.725e-07  
  6.0000e-10   -6.725e-07  
  7.0000e-10   -6.725e-07  
  8.0000e-10   -6.725e-07  
  9.0000e-10   -6.725e-07  
  1.0000e-09   -6.725e-07  
  1.1000e-09   -6.725e-07  
  1.2000e-09   -6.725e-07  
  1.3000e-09   -6.725e-07  
  1.4000e-09   -6.725e-07  
  1.5000e-09   -6.725e-07  
  1.6000e-09   -6.725e-07  
  1.7000e-09   -6.725e-07  
  1.8000e-09   -6.725e-07  
  1.9000e-09   -6.725e-07  
  2.0000e-09   -6.725e-07  
  2.1000e-09   -6.725e-07  
  2.2000e-09   -6.725e-07  
  2.3000e-09   -6.725e-07  
  2.4000e-09   -6.725e-07  
  2.5000e-09   -6.725e-07  
  2.6000e-09   -6.725e-07  
  2.7000e-09   -6.725e-07  
  2.8000e-09   -6.725e-07  
  2.9000e-09   -6.725e-07  
  3.0000e-09   -6.725e-07  
  3.1000e-09   -6.725e-07  
  3.2000e-09   -6.725e-07  
  3.3000e-09   -6.725e-07  
  3.4000e-09   -6.725e-07  
  3.5000e-09   -6.725e-07  
  3.6000e-09   -6.725e-07  
  3.7000e-09   -6.725e-07  
  3.8000e-09   -6.725e-07  
  3.9000e-09   -6.725e-07  
  4.0000e-09   -6.725e-07  
  4.1000e-09   -6.725e-07  
  4.2000e-09   -6.725e-07  
  4.3000e-09   -6.725e-07  
  4.4000e-09   -6.725e-07  
  4.5000e-09   -6.725e-07  
  4.6000e-09   -6.725e-07  
  4.7000e-09   -6.725e-07  
  4.8000e-09   -6.725e-07  
  4.9000e-09   -6.725e-07  
  5.0000e-09   -6.725e-07  
  5.1000e-09   -6.648e-07  
  5.2000e-09   -6.725e-07  
  5.3000e-09   -6.725e-07  
  5.4000e-09   -6.724e-07  
  5.5000e-09   -6.724e-07  
  5.6000e-09   -6.725e-07  
  5.7000e-09   -6.725e-07  
  5.8000e-09   -6.725e-07  
  5.9000e-09   -6.725e-07  
  6.0000e-09   -6.725e-07  
  6.1000e-09   -6.725e-07  
  6.2000e-09   -6.724e-07  
  6.3000e-09   -6.724e-07  
  6.4000e-09   -6.724e-07  
  6.5000e-09   -6.724e-07  
  6.6000e-09   -6.724e-07  
  6.7000e-09   -6.724e-07  
  6.8000e-09   -6.724e-07  
  6.9000e-09   -6.724e-07  
  7.0000e-09   -6.724e-07  
  7.1000e-09   -6.724e-07  
  7.2000e-09   -6.724e-07  
  7.3000e-09   -6.725e-07  
  7.4000e-09   -6.725e-07  
  7.5000e-09   -6.725e-07  
  7.6000e-09   -6.601e-07  
  7.7000e-09   -6.707e-07  
  7.8000e-09   -6.699e-07  
  7.9000e-09   -6.705e-07  
  8.0000e-09   -6.709e-07  
  8.1000e-09   -6.707e-07  
  8.2000e-09   -6.705e-07  
  8.3000e-09   -6.702e-07  
  8.4000e-09   -6.700e-07  
  8.5000e-09   -6.698e-07  
  8.6000e-09   -6.697e-07  
  8.7000e-09   -6.697e-07  
  8.8000e-09   -6.698e-07  
  8.9000e-09   -6.699e-07  
  9.0000e-09   -6.700e-07  
  9.1000e-09   -6.701e-07  
  9.2000e-09   -6.702e-07  
  9.3000e-09   -6.703e-07  
  9.4000e-09   -6.704e-07  
  9.5000e-09   -6.705e-07  
  9.6000e-09   -6.706e-07  
  9.7000e-09   -6.707e-07  
  9.8000e-09   -6.708e-07  
  9.9000e-09   -6.709e-07  
  1.0000e-08   -6.710e-07  
  1.0100e-08   -7.157e-07  
  1.0200e-08   -6.728e-07  
  1.0300e-08   -6.720e-07  
  1.0400e-08   -6.724e-07  
  1.0500e-08   -6.731e-07  
  1.0600e-08   -6.728e-07  
  1.0700e-08   -6.726e-07  
  1.0800e-08   -6.724e-07  
  1.0900e-08   -6.722e-07  
  1.1000e-08   -6.720e-07  
  1.1100e-08   -6.719e-07  
  1.1200e-08   -6.720e-07  
  1.1300e-08   -6.721e-07  
  1.1400e-08   -6.722e-07  
  1.1500e-08   -6.723e-07  
  1.1600e-08   -6.724e-07  
  1.1700e-08   -6.725e-07  
  1.1800e-08   -6.726e-07  
  1.1900e-08   -6.727e-07  
  1.2000e-08   -6.728e-07  
  1.2100e-08   -6.729e-07  
  1.2200e-08   -6.729e-07  
  1.2300e-08   -6.730e-07  
  1.2400e-08   -6.726e-07  
  1.2500e-08   -6.719e-07  
  1.2600e-08   -6.530e-07  
  1.2700e-08   -6.725e-07  
  1.2800e-08   -6.728e-07  
  1.2900e-08   -6.729e-07  
  1.3000e-08   -6.726e-07  
  1.3100e-08   -6.723e-07  
  1.3200e-08   -6.724e-07  
  1.3300e-08   -6.725e-07  
  1.3400e-08   -6.726e-07  
  1.3500e-08   -6.727e-07  
  1.3600e-08   -6.728e-07  
  1.3700e-08   -6.729e-07  
  1.3800e-08   -6.730e-07  
  1.3900e-08   -6.731e-07  
  1.4000e-08   -6.731e-07  
  1.4100e-08   -6.730e-07  
  1.4200e-08   -6.729e-07  
  1.4300e-08   -6.728e-07  
  1.4400e-08   -6.728e-07  
  1.4500e-08   -6.727e-07  
  1.4600e-08   -6.726e-07  
  1.4700e-08   -6.726e-07  
  1.4800e-08   -6.725e-07  
  1.4900e-08   -6.724e-07  
  1.5000e-08   -6.723e-07  
  1.5100e-08   -6.576e-07  
  1.5200e-08   -6.698e-07  
  1.5300e-08   -6.715e-07  
  1.5400e-08   -6.719e-07  
  1.5500e-08   -6.721e-07  
  1.5600e-08   -6.723e-07  
  1.5700e-08   -6.723e-07  
  1.5800e-08   -6.723e-07  
  1.5900e-08   -6.724e-07  
  1.6000e-08   -6.724e-07  
  1.6100e-08   -6.724e-07  
  1.6200e-08   -6.724e-07  
  1.6300e-08   -6.724e-07  
  1.6400e-08   -6.724e-07  
  1.6500e-08   -6.724e-07  
  1.6600e-08   -6.724e-07  
  1.6700e-08   -6.724e-07  
  1.6800e-08   -6.724e-07  
  1.6900e-08   -6.724e-07  
  1.7000e-08   -6.724e-07  
  1.7100e-08   -6.724e-07  
  1.7200e-08   -6.724e-07  
  1.7300e-08   -6.724e-07  
  1.7400e-08   -6.724e-07  
  1.7500e-08   -6.724e-07  
  1.7600e-08   -1.644e-07  
  1.7700e-08   -8.765e-08  
  1.7800e-08    3.774e-08  
  1.7900e-08   -3.696e-08  
  1.8000e-08    3.832e-08  
  1.8100e-08    2.926e-08  
  1.8200e-08   -1.262e-08  
  1.8300e-08   -5.451e-08  
  1.8400e-08   -3.659e-08  
  1.8500e-08   -8.169e-09  
  1.8600e-08    2.025e-08  
  1.8700e-08    4.866e-08  
  1.8800e-08    4.923e-08  
  1.8900e-08    3.271e-08  
  1.9000e-08    1.619e-08  
  1.9100e-08   -3.250e-10  
  1.9200e-08   -1.684e-08  
  1.9300e-08   -3.336e-08  
  1.9400e-08   -4.988e-08  
  1.9500e-08   -5.272e-08  
  1.9600e-08   -3.029e-08  
  1.9700e-08   -7.861e-09  
  1.9800e-08    1.457e-08  
  1.9900e-08    3.700e-08  
  2.0000e-08    5.944e-08  
  2.0100e-08   -9.413e-08  
  2.0200e-08   -2.137e-09  
  2.0300e-08   -2.831e-09  
  2.0400e-08   -2.204e-09  
  2.0500e-08   -2.594e-09  
  2.0600e-08   -2.984e-09  
  2.0700e-08   -3.109e-09  
  2.0800e-08   -2.995e-09  
  2.0900e-08   -2.880e-09  
  2.1000e-08   -2.766e-09  
  2.1100e-08   -2.652e-09  
  2.1200e-08   -2.537e-09  
  2.1300e-08   -2.423e-09  
  2.1400e-08   -2.309e-09  
  2.1500e-08   -2.194e-09  
  2.1600e-08   -2.248e-09  
  2.1700e-08   -2.344e-09  
  2.1800e-08   -2.440e-09  
  2.1900e-08   -2.536e-09  
  2.2000e-08   -2.632e-09  
  2.2100e-08   -2.728e-09  
  2.2200e-08   -2.824e-09  
  2.2300e-08   -2.919e-09  
  2.2400e-08   -3.015e-09  
  2.2500e-08   -3.111e-09  
  2.2600e-08   -2.704e-07  
  2.2700e-08   -2.308e-09  
  2.2800e-08   -3.419e-09  
  2.2900e-08   -3.002e-09  
  2.3000e-08   -1.987e-09  
  2.3100e-08   -1.719e-09  
  2.3200e-08   -2.219e-09  
  2.3300e-08   -2.719e-09  
  2.3400e-08   -3.219e-09  
  2.3500e-08   -3.719e-09  
  2.3600e-08   -3.539e-09  
  2.3700e-08   -3.346e-09  
  2.3800e-08   -3.153e-09  
  2.3900e-08   -2.961e-09  
  2.4000e-08   -2.768e-09  
  2.4100e-08   -2.575e-09  
  2.4200e-08   -2.382e-09  
  2.4300e-08   -2.189e-09  
  2.4400e-08   -1.996e-09  
  2.4500e-08   -1.803e-09  
  2.4600e-08   -1.610e-09  
  2.4700e-08   -1.847e-09  
  2.4800e-08   -2.453e-09  
  2.4900e-08   -3.059e-09  
  2.5000e-08   -3.665e-09  
  2.5100e-08    5.305e-08  
  2.5200e-08   -3.239e-09  
  2.5300e-08   -2.147e-09  
  2.5400e-08   -2.681e-09  
  2.5500e-08   -3.215e-09  
  2.5600e-08   -3.106e-09  
  2.5700e-08   -2.913e-09  
  2.5800e-08   -2.719e-09  
  2.5900e-08   -2.526e-09  
  2.6000e-08   -2.332e-09  
  2.6100e-08   -2.139e-09  
  2.6200e-08   -2.033e-09  
  2.6300e-08   -2.127e-09  
  2.6400e-08   -2.221e-09  
  2.6500e-08   -2.316e-09  
  2.6600e-08   -2.410e-09  
  2.6700e-08   -2.505e-09  
  2.6800e-08   -2.599e-09  
  2.6900e-08   -2.694e-09  
  2.7000e-08   -2.788e-09  
  2.7100e-08   -2.882e-09  
  2.7200e-08   -2.977e-09  
  2.7300e-08   -3.071e-09  
  2.7400e-08   -3.166e-09  
  2.7500e-08   -3.260e-09  
  2.7600e-08   -7.599e-06  
  2.7700e-08   -8.096e-07  
  2.7800e-08    1.449e-08  
  2.7900e-08    2.273e-08  
  2.8000e-08    2.361e-08  
  2.8100e-08   -1.438e-07  
  2.8200e-08    9.176e-08  
  2.8300e-08   -1.055e-07  
  2.8400e-08    1.585e-07  
  2.8500e-08   -6.939e-08  
  2.8600e-08   -5.288e-08  
  2.8700e-08    1.376e-07  
  2.8800e-08    2.466e-08  
  2.8900e-08   -1.344e-07  
  2.9000e-08   -5.599e-08  
  2.9100e-08    7.687e-08  
  2.9200e-08    1.236e-07  
  2.9300e-08    1.264e-08  
  2.9400e-08   -9.829e-08  
  2.9500e-08   -1.262e-07  
  2.9600e-08   -3.358e-08  
  2.9700e-08    5.908e-08  
  2.9800e-08    1.517e-07  
  2.9900e-08    9.826e-09  
  3.0000e-08   -1.640e-07  
  3.0100e-08    1.012e-08  
  3.0200e-08   -1.222e-09  
  3.0300e-08   -5.055e-10  
  3.0400e-08   -4.972e-10  
  3.0500e-08   -5.161e-10  
  3.0600e-08   -5.520e-10  
  3.0700e-08   -5.879e-10  
  3.0800e-08   -6.238e-10  
  3.0900e-08   -6.558e-10  
  3.1000e-08   -6.365e-10  
  3.1100e-08   -6.171e-10  
  3.1200e-08   -5.977e-10  
  3.1300e-08   -5.784e-10  
  3.1400e-08   -5.590e-10  
  3.1500e-08   -5.397e-10  
  3.1600e-08   -5.203e-10  
  3.1700e-08   -5.010e-10  
  3.1800e-08   -4.816e-10  
  3.1900e-08   -4.622e-10  
  3.2000e-08   -4.429e-10  
  3.2100e-08   -4.613e-10  
  3.2200e-08   -5.177e-10  
  3.2300e-08   -5.742e-10  
  3.2400e-08   -6.306e-10  
  3.2500e-08   -6.871e-10  
  3.2600e-08   -3.132e-08  
  3.2700e-08   -3.340e-10  
  3.2800e-08   -8.197e-10  
  3.2900e-08   -6.712e-10  
  3.3000e-08   -3.095e-10  
  3.3100e-08   -2.132e-10  
  3.3200e-08   -3.260e-10  
  3.3300e-08   -4.388e-10  
  3.3400e-08   -5.516e-10  
  3.3500e-08   -6.644e-10  
  3.3600e-08   -7.772e-10  
  3.3700e-08   -8.900e-10  
  3.3800e-08   -8.926e-10  
  3.3900e-08   -8.316e-10  
  3.4000e-08   -7.706e-10  
  3.4100e-08   -7.096e-10  
  3.4200e-08   -6.487e-10  
  3.4300e-08   -5.877e-10  
  3.4400e-08   -5.267e-10  
  3.4500e-08   -4.657e-10  
  3.4600e-08   -4.048e-10  
  3.4700e-08   -3.438e-10  
  3.4800e-08   -2.828e-10  
  3.4900e-08   -2.219e-10  
  3.5000e-08   -1.609e-10  
  3.5100e-08   -1.991e-10  
  3.5200e-08   -2.373e-10  
  3.5300e-08   -2.754e-10  
  3.5400e-08   -3.136e-10  
  3.5500e-08   -3.518e-10  
  3.5600e-08   -3.900e-10  
  3.5700e-08   -4.282e-10  
  3.5800e-08   -4.664e-10  
  3.5900e-08   -5.046e-10  
  3.6000e-08   -5.428e-10  
  3.6100e-08   -5.429e-10  
  3.6200e-08   -5.430e-10  
  3.6300e-08   -5.432e-10  
  3.6400e-08   -5.433e-10  
  3.6500e-08   -5.434e-10  
  3.6600e-08   -5.436e-10  
  3.6700e-08   -5.437e-10  
  3.6800e-08   -5.438e-10  
  3.6900e-08   -5.440e-10  
  3.7000e-08   -5.441e-10  
  3.7100e-08   -5.442e-10  
  3.7200e-08   -5.443e-10  
  3.7300e-08   -5.445e-10  
  3.7400e-08   -5.446e-10  
  3.7500e-08   -5.447e-10  
  3.7600e-08   -5.449e-10  
  3.7700e-08   -5.450e-10  
  3.7800e-08   -5.451e-10  
  3.7900e-08   -5.453e-10  
  3.8000e-08   -5.454e-10  
  3.8100e-08   -5.453e-10  
  3.8200e-08   -5.452e-10  
  3.8300e-08   -5.451e-10  
  3.8400e-08   -5.450e-10  
  3.8500e-08   -5.449e-10  
  3.8600e-08   -5.448e-10  
  3.8700e-08   -5.447e-10  
  3.8800e-08   -5.446e-10  
  3.8900e-08   -5.445e-10  
  3.9000e-08   -5.444e-10  
  3.9100e-08   -5.443e-10  
  3.9200e-08   -5.442e-10  
  3.9300e-08   -5.441e-10  
  3.9400e-08   -5.440e-10  
  3.9500e-08   -5.439e-10  
  3.9600e-08   -5.438e-10  
  3.9700e-08   -5.436e-10  
  3.9800e-08   -5.435e-10  
  3.9900e-08   -5.434e-10  
  4.0000e-08   -5.433e-10  
y
-----------------------------------------------

          ***** job concluded
1****** HSPICE -- H-2013.03 64-BIT (Mar  7 2013) win64 ******                   
 ******  
 'inverter'

  ******  job statistics summary tnom=  25.000 temp=  25.000 *****

  ******  HSPICE Threads Information  ******

  Command Line Threads Count :     1
  Available CPU Count        :     4
  Actual Threads Count       :     1


  ******  Circuit Statistics  ******
  # nodes       =     519 # elements   =    1176
  # resistors   =     216 # capacitors =     522 # inductors   =       0
  # mutual_inds =       0 # vccs       =     144 # vcvs        =     252
  # cccs        =       0 # ccvs       =       0 # volt_srcs   =      42
  # curr_srcs   =       0 # diodes     =       0 # bjts        =       0
  # jfets       =       0 # mosfets    =       0 # U elements  =       0
  # T elements  =       0 # W elements =       0 # B elements  =       0
  # S elements  =       0 # P elements =       0 # va device   =       0
  # vector_srcs =       0 # N elements =       0


  ******  Runtime Statistics (seconds)  ******

  analysis           time    # points   tot. iter  conv.iter
  op point          26.20           1         775
  transient         16.62         401         814         249 rev=        14
  readin             0.08
  errchk             0.27
  setup              0.00
  output             0.00


           peak memory used         52.78 megabytes
           total cpu time           43.14 seconds
           total elapsed time       43.24 seconds
           job started at     19:10:25 02/27/2018
           job ended   at     19:11:08 02/27/2018


  lic: Release hspice token(s) 
 lic: total license checkout elapse time:        0.04(s)
