 ****** HSPICE -- H-2013.03 64-BIT (Mar  7 2013) win64 ******                   
  Copyright (C) 2013 Synopsys, Inc. All Rights Reserved.                        
  Unpublished-rights reserved under US copyright laws.
  This program is protected by law and is subject to the
  terms and conditions of the license agreement from Synopsys.
  Use of this program is your acceptance to be bound by the
  license agreement. HSPICE is the trademark of Synopsys, Inc.
  Input File: sramusingnti&pti10nmtry.sp                                        
  Command line options: -i sramusingnti&pti10nmtry.sp -o sramusingnti&pti10nmtry.lis
  lic:  
  lic: FLEXlm: v10.9.8 
  lic: USER:   Dell                 HOSTNAME: DESKTOP-O3DHVG1 
  lic: HOSTID: "28f10e041fd4 00a0c6000017 a0d37a293ca4 a0d37a293ca5" PID:      2
 444 
  lic: Using FLEXlm license file: 
  lic: C:\synopsys\Hspice_H-2013.03\lic.dat\lic.lic 
  lic: Checkout 1 hspice 
  lic: License/Maintenance for hspice will expire on 31-dec-2019/2019.12 
  lic: NODE LOCKED license on hostid "28f10e041fd4 00a0c6000017 a0d37a293ca4 a0d
 37a293ca5" 
  lic:   
 Init: read install configuration file: C:\synopsys\Hspice_H-2013.03\meta.cfg
 scientific notation:
 a=10**-18  f=10**-15  p=10**-12  n=10**-9  u=10**-6
 m=10**-3   k=10**3    x=10**6    g=10**9 
1****** HSPICE -- H-2013.03 64-BIT (Mar  7 2013) win64 ******                   
 ******  
 'inverter'

  ******  circuit name directory
 circuit number to circuit name directory
   number circuitname                     definition         multiplier
        0 main circuit


 circuit parameter definitions
  parameter          =  value 

     0:temp                                                    = 2.700e+01      
     0:m_cnt                                                   = 1.000e+00      
     0:wg                                                      = 4.000e-09      
     0:cb                                                      = 4.000e-11      
     0:lg                                                      = 1.000e-08      
     0:lgef                                                    = 1.000e-07      
     0:vfn                                                     = 0.000e+00      
     0:vfp                                                     = 0.000e+00      
     0:m                                                       = 0.000e+00      
     0:n                                                       = 1.900e+01      
     0:hox                                                     = 4.000e-09      
     1:tox                                                     = 4.000e-09      
     1:csub                                                    = 4.000e-11      
     1:pitch                                                   = 2.000e-08      
     1:n1                                                      = 0.000e+00      
     1:n2                                                      = 1.000e+01      
     1:vfbp                                                    = 0.000e+00      
     1:kgate                                                   = 1.600e+01      
     1:dout                                                    = 0.000e+00      
     1:sout                                                    = 0.000e+00      
     1:tubes                                                   = 1.000e+00      
     1:lch                                                     = 1.000e-08      
     1:lgeff                                                   = 1.000e-07      
     1:lss                                                     = 3.200e-08      
     1:ldd                                                     = 3.200e-08      
     2:tox                                                     = 4.000e-09      
     2:csub                                                    = 4.000e-11      
     2:vfbn                                                    = 0.000e+00      
     2:pitch                                                   = 2.000e-08      
     2:n1                                                      = 0.000e+00      
     2:n2                                                      = 1.900e+01      
     2:kgate                                                   = 1.600e+01      
     2:dout                                                    = 0.000e+00      
     2:sout                                                    = 0.000e+00      
     2:tubes                                                   = 1.000e+00      
     2:lch                                                     = 1.000e-08      
     2:lgeff                                                   = 1.000e-07      
     2:lss                                                     = 3.200e-08      
     2:ldd                                                     = 3.200e-08      
     3:tox                                                     = 4.000e-09      
     3:csub                                                    = 4.000e-11      
     3:pitch                                                   = 2.000e-08      
     3:n1                                                      = 0.000e+00      
     3:n2                                                      = 1.400e+01      
     3:vfbp                                                    = 0.000e+00      
     3:kgate                                                   = 1.600e+01      
     3:dout                                                    = 0.000e+00      
     3:sout                                                    = 0.000e+00      
     3:tubes                                                   = 1.000e+00      
     3:lch                                                     = 1.000e-08      
     3:lgeff                                                   = 1.000e-07      
     3:lss                                                     = 3.200e-08      
     3:ldd                                                     = 3.200e-08      
     4:tox                                                     = 4.000e-09      
     4:csub                                                    = 4.000e-11      
     4:pitch                                                   = 2.000e-08      
     4:n1                                                      = 0.000e+00      
     4:n2                                                      = 1.900e+01      
     4:vfbp                                                    = 0.000e+00      
     4:kgate                                                   = 1.600e+01      
     4:dout                                                    = 0.000e+00      
     4:sout                                                    = 0.000e+00      
     4:tubes                                                   = 1.000e+00      
     4:lch                                                     = 1.000e-08      
     4:lgeff                                                   = 1.000e-07      
     4:lss                                                     = 3.200e-08      
     4:ldd                                                     = 3.200e-08      
     5:tox                                                     = 4.000e-09      
     5:csub                                                    = 4.000e-11      
     5:vfbn                                                    = 0.000e+00      
     5:pitch                                                   = 2.000e-08      
     5:n1                                                      = 0.000e+00      
     5:n2                                                      = 1.000e+01      
     5:kgate                                                   = 1.600e+01      
     5:dout                                                    = 0.000e+00      
     5:sout                                                    = 0.000e+00      
     5:tubes                                                   = 1.000e+00      
     5:lch                                                     = 1.000e-08      
     5:lgeff                                                   = 1.000e-07      
     5:lss                                                     = 3.200e-08      
     5:ldd                                                     = 3.200e-08      
     6:tox                                                     = 4.000e-09      
     6:csub                                                    = 4.000e-11      
     6:vfbn                                                    = 0.000e+00      
     6:pitch                                                   = 2.000e-08      
     6:n1                                                      = 0.000e+00      
     6:n2                                                      = 1.400e+01      
     6:kgate                                                   = 1.600e+01      
     6:dout                                                    = 0.000e+00      
     6:sout                                                    = 0.000e+00      
     6:tubes                                                   = 1.000e+00      
     6:lch                                                     = 1.000e-08      
     6:lgeff                                                   = 1.000e-07      
     6:lss                                                     = 3.200e-08      
     6:ldd                                                     = 3.200e-08      




 constants  - tnom         kt           vt           gapsi        ni
            2.9815e+02   4.1163e-21   2.5692e-02   1.1156e+00   1.2565e+16 
  **info** (sramusingnti&pti10nmtry.sp:129) DC voltage reset to initial transient source value              in source        0:vrwl                new dc=  0.0000D+00

 **warning**  associated with encrypted block(s) were suppressed due to encrypted content

1****** HSPICE -- H-2013.03 64-BIT (Mar  7 2013) win64 ******                   
 ******  
 'inverter'

  ******  circuit element summary tnom=  25.000 temp=  25.000 *****


 **** independent sources

     name         node1        node2      dc volt    ac mag    ac phase    type
  vdd  vdd               0                  9.000e-01  0.000e+00  0.000e+00 dc   
  vrwl  rwl               0                  0.000e+00  0.000e+00  0.000e+00 pwl  
                time        value

                 0.000e+00    0.000e+00
                 1.250e-08    0.000e+00
                 1.260e-08    9.000e-01
                 1.500e-08    9.000e-01
                 1.510e-08    0.000e+00
                 2.250e-08    0.000e+00
                 2.260e-08    9.000e-01
                 2.500e-08    9.000e-01
                 2.510e-08    0.000e+00
                 3.250e-08    0.000e+00
                 3.260e-08    9.000e-01
                 3.500e-08    9.000e-01


  vrwlb  rwlb              0                  9.000e-01  0.000e+00  0.000e+00 pwl  
                time        value

                 0.000e+00    9.000e-01
                 1.250e-08    9.000e-01
                 1.260e-08    0.000e+00
                 1.500e-08    0.000e+00
                 1.510e-08    9.000e-01
                 2.250e-08    9.000e-01
                 2.260e-08    0.000e+00
                 2.500e-08    0.000e+00
                 2.510e-08    9.000e-01
                 3.250e-08    9.000e-01
                 3.260e-08    0.000e+00
                 3.500e-08    0.000e+00


  vwbl  wbl               0                  0.000e+00  0.000e+00  0.000e+00 pwl  
                time        value

                 0.000e+00    0.000e+00
                 5.000e-09    0.000e+00
                 5.100e-09    4.500e-01
                 1.000e-08    4.500e-01
                 1.010e-08    0.000e+00
                 1.500e-08    0.000e+00
                 1.510e-08    9.000e-01
                 2.000e-08    9.000e-01
                 2.010e-08    0.000e+00
                 3.000e-08    0.000e+00
                 4.000e-08    0.000e+00


  vwwl  wwl               0                  0.000e+00  0.000e+00  0.000e+00 pwl  
                time        value

                 0.000e+00    0.000e+00
                 7.500e-09    0.000e+00
                 7.600e-09    9.000e-01
                 1.000e-08    9.000e-01
                 1.010e-08    0.000e+00
                 1.750e-08    0.000e+00
                 1.760e-08    9.000e-01
                 2.000e-08    9.000e-01
                 2.010e-08    0.000e+00
                 2.750e-08    0.000e+00
                 2.760e-08    9.000e-01
                 3.000e-08    9.000e-01
                 3.010e-08    0.000e+00
                 4.000e-08    0.000e+00


  vwwlb  wwlb              0                  9.000e-01  0.000e+00  0.000e+00 pwl  
                time        value

                 0.000e+00    9.000e-01
                 7.500e-09    9.000e-01
                 7.600e-09    0.000e+00
                 1.000e-08    0.000e+00
                 1.010e-08    9.000e-01
                 1.750e-08    9.000e-01
                 1.760e-08    0.000e+00
                 2.000e-08    0.000e+00
                 2.010e-08    9.000e-01
                 2.750e-08    9.000e-01
                 2.760e-08    0.000e+00
                 3.000e-08    0.000e+00
                 3.010e-08    9.000e-01
                 4.000e-08    9.000e-01




 **** subcircuit calls
    name        subcircuit         external nodes


         0:xcnt1    pcnfet          0:vdd         0:q           0:n1      
                               0:n1      


         0:xcnt2    ncnfet          0:n1          0:q           0:0       
                               0:0       


         0:xcnt3    pcnfet          0:qb          0:0           0:n1      
                               0:n1      


         0:xcnt4    pcnfet          0:vdd         0:q           0:n2      
                               0:n2      


         0:xcnt5    ncnfet          0:n2          0:q           0:0       
                               0:0       


         0:xcnt6    ncnfet          0:qb          0:vdd         0:n2      
                               0:n2      


         0:xcnt7    pcnfet          0:vdd         0:qb          0:n3      
                               0:n3      


         0:xcnt8    ncnfet          0:n3          0:qb          0:0       
                               0:0       


         0:xcnt9    pcnfet          0:q           0:0           0:n3      
                               0:n3      


         0:xcnt10   pcnfet          0:vdd         0:qb          0:n4      
                               0:n4      


         0:xcnt11   ncnfet          0:n4          0:qb          0:0       
                               0:0       


         0:xcnt12   ncnfet          0:q           0:vdd         0:n4      
                               0:n4      


         0:xcnt222  pcnfet          0:q           0:wwlb        0:wbl     
                               0:wbl     


         0:xcnt111  ncnfet          0:wbl         0:wwl         0:q       
                               0:q       


         0:xcnt15   pcnfet          0:rbl         0:rwlb        0:q       
                               0:q       


         0:xcnt16   ncnfet          0:q           0:rwl         0:rbl     
                               0:rbl     


  
1****** HSPICE -- H-2013.03 64-BIT (Mar  7 2013) win64 ******                   
 ******  
 'inverter'

  ******  element node table
                                                                                      
 0                vdd              vrwl             vrwlb            vwbl             
                  vwwl             vwwlb                                              
 rwl              vrwl                                                                
 rwlb             vrwlb                                                               
 vdd              vdd                                                                 
 wbl              vwbl                                                                
 wwl              vwwl                                                                
 wwlb             vwwlb                                                               
  **warning** PIVOT option setting is simplified, pivot = 13 is obsolete,
              automatically switch to pivot = 1.
 *****************************************************************
 ******  option summary
 ******
 runlvl  = 3         bypass  = 2         
  Opening plot unit= 79
 file=sramusingnti&pti10nmtry.pa0

1****** HSPICE -- H-2013.03 64-BIT (Mar  7 2013) win64 ******                   
 ******  
 'inverter'

  ******  operating point information tnom=  25.000 temp=  25.000 *****
 ***** operating point status is voltage   simulation time is   0.000e+00
     node    =voltage       node    =voltage       node    =voltage

 + 0:n1      = 2.517e-01  0:n2      = 7.888e-01  0:n3      = 2.380e-01
 + 0:n4      = 7.820e-01  0:q       = 4.532e-01  0:qb      = 4.540e-01
 + 0:rbl     = 4.863e-03  0:rwl     = 0.000e+00  0:rwlb    = 9.000e-01
 + 0:vdd     = 9.000e-01  0:wbl     = 0.000e+00  0:wwl     = 0.000e+00
 + 0:wwlb    = 9.000e-01

 ******  
 'inverter'

  ******  transient analysis tnom=  25.000 temp=  25.000 *****
x

        time    voltage      voltage      voltage      voltage    
                     q           qb           rwl         rwlb    
  0.0000e+00    4.532e-01    4.540e-01    0.000e+00    9.000e-01  
  1.0000e-10    4.532e-01    4.540e-01    0.000e+00    9.000e-01  
  2.0000e-10    4.532e-01    4.540e-01    0.000e+00    9.000e-01  
  3.0000e-10    4.532e-01    4.540e-01    0.000e+00    9.000e-01  
  4.0000e-10    4.532e-01    4.540e-01    0.000e+00    9.000e-01  
  5.0000e-10    4.532e-01    4.540e-01    0.000e+00    9.000e-01  
  6.0000e-10    4.532e-01    4.540e-01    0.000e+00    9.000e-01  
  7.0000e-10    4.532e-01    4.540e-01    0.000e+00    9.000e-01  
  8.0000e-10    4.532e-01    4.540e-01    0.000e+00    9.000e-01  
  9.0000e-10    4.532e-01    4.540e-01    0.000e+00    9.000e-01  
  1.0000e-09    4.532e-01    4.540e-01    0.000e+00    9.000e-01  
  1.1000e-09    4.532e-01    4.540e-01    0.000e+00    9.000e-01  
  1.2000e-09    4.532e-01    4.540e-01    0.000e+00    9.000e-01  
  1.3000e-09    4.532e-01    4.540e-01    0.000e+00    9.000e-01  
  1.4000e-09    4.532e-01    4.540e-01    0.000e+00    9.000e-01  
  1.5000e-09    4.532e-01    4.540e-01    0.000e+00    9.000e-01  
  1.6000e-09    4.532e-01    4.540e-01    0.000e+00    9.000e-01  
  1.7000e-09    4.532e-01    4.540e-01    0.000e+00    9.000e-01  
  1.8000e-09    4.532e-01    4.540e-01    0.000e+00    9.000e-01  
  1.9000e-09    4.532e-01    4.540e-01    0.000e+00    9.000e-01  
  2.0000e-09    4.532e-01    4.540e-01    0.000e+00    9.000e-01  
  2.1000e-09    4.532e-01    4.540e-01    0.000e+00    9.000e-01  
  2.2000e-09    4.532e-01    4.540e-01    0.000e+00    9.000e-01  
  2.3000e-09    4.532e-01    4.540e-01    0.000e+00    9.000e-01  
  2.4000e-09    4.532e-01    4.540e-01    0.000e+00    9.000e-01  
  2.5000e-09    4.532e-01    4.540e-01    0.000e+00    9.000e-01  
  2.6000e-09    4.532e-01    4.540e-01    0.000e+00    9.000e-01  
  2.7000e-09    4.532e-01    4.540e-01    0.000e+00    9.000e-01  
  2.8000e-09    4.532e-01    4.540e-01    0.000e+00    9.000e-01  
  2.9000e-09    4.532e-01    4.540e-01    0.000e+00    9.000e-01  
  3.0000e-09    4.532e-01    4.540e-01    0.000e+00    9.000e-01  
  3.1000e-09    4.532e-01    4.540e-01    0.000e+00    9.000e-01  
  3.2000e-09    4.532e-01    4.540e-01    0.000e+00    9.000e-01  
  3.3000e-09    4.532e-01    4.540e-01    0.000e+00    9.000e-01  
  3.4000e-09    4.532e-01    4.540e-01    0.000e+00    9.000e-01  
  3.5000e-09    4.532e-01    4.540e-01    0.000e+00    9.000e-01  
  3.6000e-09    4.532e-01    4.540e-01    0.000e+00    9.000e-01  
  3.7000e-09    4.532e-01    4.540e-01    0.000e+00    9.000e-01  
  3.8000e-09    4.532e-01    4.540e-01    0.000e+00    9.000e-01  
  3.9000e-09    4.532e-01    4.540e-01    0.000e+00    9.000e-01  
  4.0000e-09    4.532e-01    4.540e-01    0.000e+00    9.000e-01  
  4.1000e-09    4.532e-01    4.540e-01    0.000e+00    9.000e-01  
  4.2000e-09    4.532e-01    4.540e-01    0.000e+00    9.000e-01  
  4.3000e-09    4.532e-01    4.540e-01    0.000e+00    9.000e-01  
  4.4000e-09    4.532e-01    4.540e-01    0.000e+00    9.000e-01  
  4.5000e-09    4.532e-01    4.540e-01    0.000e+00    9.000e-01  
  4.6000e-09    4.532e-01    4.540e-01    0.000e+00    9.000e-01  
  4.7000e-09    4.532e-01    4.540e-01    0.000e+00    9.000e-01  
  4.8000e-09    4.532e-01    4.540e-01    0.000e+00    9.000e-01  
  4.9000e-09    4.532e-01    4.540e-01    0.000e+00    9.000e-01  
  5.0000e-09    4.532e-01    4.540e-01    0.000e+00    9.000e-01  
  5.1000e-09    4.862e-01    4.552e-01    0.000e+00    9.000e-01  
  5.2000e-09    4.641e-01    4.518e-01    0.000e+00    9.000e-01  
  5.3000e-09    4.581e-01    4.512e-01    0.000e+00    9.000e-01  
  5.4000e-09    4.569e-01    4.514e-01    0.000e+00    9.000e-01  
  5.5000e-09    4.566e-01    4.516e-01    0.000e+00    9.000e-01  
  5.6000e-09    4.564e-01    4.517e-01    0.000e+00    9.000e-01  
  5.7000e-09    4.562e-01    4.519e-01    0.000e+00    9.000e-01  
  5.8000e-09    4.560e-01    4.520e-01    0.000e+00    9.000e-01  
  5.9000e-09    4.559e-01    4.521e-01    0.000e+00    9.000e-01  
  6.0000e-09    4.557e-01    4.522e-01    0.000e+00    9.000e-01  
  6.1000e-09    4.556e-01    4.523e-01    0.000e+00    9.000e-01  
  6.2000e-09    4.555e-01    4.524e-01    0.000e+00    9.000e-01  
  6.3000e-09    4.553e-01    4.525e-01    0.000e+00    9.000e-01  
  6.4000e-09    4.552e-01    4.525e-01    0.000e+00    9.000e-01  
  6.5000e-09    4.551e-01    4.526e-01    0.000e+00    9.000e-01  
  6.6000e-09    4.551e-01    4.527e-01    0.000e+00    9.000e-01  
  6.7000e-09    4.550e-01    4.527e-01    0.000e+00    9.000e-01  
  6.8000e-09    4.549e-01    4.528e-01    0.000e+00    9.000e-01  
  6.9000e-09    4.548e-01    4.528e-01    0.000e+00    9.000e-01  
  7.0000e-09    4.547e-01    4.529e-01    0.000e+00    9.000e-01  
  7.1000e-09    4.546e-01    4.530e-01    0.000e+00    9.000e-01  
  7.2000e-09    4.546e-01    4.530e-01    0.000e+00    9.000e-01  
  7.3000e-09    4.545e-01    4.531e-01    0.000e+00    9.000e-01  
  7.4000e-09    4.544e-01    4.531e-01    0.000e+00    9.000e-01  
  7.5000e-09    4.544e-01    4.531e-01    0.000e+00    9.000e-01  
  7.6000e-09    4.822e-01    4.539e-01    0.000e+00    9.000e-01  
  7.7000e-09    4.557e-01    4.511e-01    0.000e+00    9.000e-01  
  7.8000e-09    4.532e-01    4.514e-01    0.000e+00    9.000e-01  
  7.9000e-09    4.529e-01    4.519e-01    0.000e+00    9.000e-01  
  8.0000e-09    4.526e-01    4.523e-01    0.000e+00    9.000e-01  
  8.1000e-09    4.525e-01    4.525e-01    0.000e+00    9.000e-01  
  8.2000e-09    4.523e-01    4.528e-01    0.000e+00    9.000e-01  
  8.3000e-09    4.522e-01    4.530e-01    0.000e+00    9.000e-01  
  8.4000e-09    4.521e-01    4.532e-01    0.000e+00    9.000e-01  
  8.5000e-09    4.520e-01    4.534e-01    0.000e+00    9.000e-01  
  8.6000e-09    4.519e-01    4.536e-01    0.000e+00    9.000e-01  
  8.7000e-09    4.518e-01    4.537e-01    0.000e+00    9.000e-01  
  8.8000e-09    4.517e-01    4.539e-01    0.000e+00    9.000e-01  
  8.9000e-09    4.516e-01    4.540e-01    0.000e+00    9.000e-01  
  9.0000e-09    4.516e-01    4.541e-01    0.000e+00    9.000e-01  
  9.1000e-09    4.516e-01    4.542e-01    0.000e+00    9.000e-01  
  9.2000e-09    4.515e-01    4.543e-01    0.000e+00    9.000e-01  
  9.3000e-09    4.515e-01    4.544e-01    0.000e+00    9.000e-01  
  9.4000e-09    4.514e-01    4.545e-01    0.000e+00    9.000e-01  
  9.5000e-09    4.514e-01    4.546e-01    0.000e+00    9.000e-01  
  9.6000e-09    4.514e-01    4.547e-01    0.000e+00    9.000e-01  
  9.7000e-09    4.513e-01    4.547e-01    0.000e+00    9.000e-01  
  9.8000e-09    4.513e-01    4.548e-01    0.000e+00    9.000e-01  
  9.9000e-09    4.513e-01    4.548e-01    0.000e+00    9.000e-01  
  1.0000e-08    4.513e-01    4.549e-01    0.000e+00    9.000e-01  
  1.0100e-08    3.871e-01    4.536e-01    0.000e+00    9.000e-01  
  1.0200e-08    4.318e-01    4.617e-01    0.000e+00    9.000e-01  
  1.0300e-08    4.427e-01    4.643e-01    0.000e+00    9.000e-01  
  1.0400e-08    4.457e-01    4.644e-01    0.000e+00    9.000e-01  
  1.0500e-08    4.466e-01    4.637e-01    0.000e+00    9.000e-01  
  1.0600e-08    4.470e-01    4.630e-01    0.000e+00    9.000e-01  
  1.0700e-08    4.474e-01    4.623e-01    0.000e+00    9.000e-01  
  1.0800e-08    4.477e-01    4.618e-01    0.000e+00    9.000e-01  
  1.0900e-08    4.479e-01    4.613e-01    0.000e+00    9.000e-01  
  1.1000e-08    4.482e-01    4.609e-01    0.000e+00    9.000e-01  
  1.1100e-08    4.485e-01    4.604e-01    0.000e+00    9.000e-01  
  1.1200e-08    4.487e-01    4.601e-01    0.000e+00    9.000e-01  
  1.1300e-08    4.490e-01    4.598e-01    0.000e+00    9.000e-01  
  1.1400e-08    4.492e-01    4.595e-01    0.000e+00    9.000e-01  
  1.1500e-08    4.494e-01    4.592e-01    0.000e+00    9.000e-01  
  1.1600e-08    4.496e-01    4.589e-01    0.000e+00    9.000e-01  
  1.1700e-08    4.498e-01    4.586e-01    0.000e+00    9.000e-01  
  1.1800e-08    4.500e-01    4.583e-01    0.000e+00    9.000e-01  
  1.1900e-08    4.502e-01    4.581e-01    0.000e+00    9.000e-01  
  1.2000e-08    4.503e-01    4.579e-01    0.000e+00    9.000e-01  
  1.2100e-08    4.505e-01    4.577e-01    0.000e+00    9.000e-01  
  1.2200e-08    4.506e-01    4.575e-01    0.000e+00    9.000e-01  
  1.2300e-08    4.508e-01    4.573e-01    0.000e+00    9.000e-01  
  1.2400e-08    4.509e-01    4.571e-01    0.000e+00    9.000e-01  
  1.2500e-08    4.511e-01    4.569e-01    0.000e+00    9.000e-01  
  1.2600e-08    4.481e-01    4.567e-01    9.000e-01    0.000e+00  
  1.2700e-08    4.476e-01    4.569e-01    9.000e-01    0.000e+00  
  1.2800e-08    4.499e-01    4.572e-01    9.000e-01    0.000e+00  
  1.2900e-08    4.506e-01    4.571e-01    9.000e-01    0.000e+00  
  1.3000e-08    4.509e-01    4.570e-01    9.000e-01    0.000e+00  
  1.3100e-08    4.511e-01    4.568e-01    9.000e-01    0.000e+00  
  1.3200e-08    4.513e-01    4.567e-01    9.000e-01    0.000e+00  
  1.3300e-08    4.514e-01    4.565e-01    9.000e-01    0.000e+00  
  1.3400e-08    4.515e-01    4.564e-01    9.000e-01    0.000e+00  
  1.3500e-08    4.515e-01    4.562e-01    9.000e-01    0.000e+00  
  1.3600e-08    4.516e-01    4.561e-01    9.000e-01    0.000e+00  
  1.3700e-08    4.517e-01    4.560e-01    9.000e-01    0.000e+00  
  1.3800e-08    4.518e-01    4.559e-01    9.000e-01    0.000e+00  
  1.3900e-08    4.518e-01    4.558e-01    9.000e-01    0.000e+00  
  1.4000e-08    4.519e-01    4.557e-01    9.000e-01    0.000e+00  
  1.4100e-08    4.520e-01    4.556e-01    9.000e-01    0.000e+00  
  1.4200e-08    4.520e-01    4.555e-01    9.000e-01    0.000e+00  
  1.4300e-08    4.521e-01    4.554e-01    9.000e-01    0.000e+00  
  1.4400e-08    4.521e-01    4.553e-01    9.000e-01    0.000e+00  
  1.4500e-08    4.522e-01    4.553e-01    9.000e-01    0.000e+00  
  1.4600e-08    4.523e-01    4.552e-01    9.000e-01    0.000e+00  
  1.4700e-08    4.523e-01    4.551e-01    9.000e-01    0.000e+00  
  1.4800e-08    4.524e-01    4.550e-01    9.000e-01    0.000e+00  
  1.4900e-08    4.524e-01    4.550e-01    9.000e-01    0.000e+00  
  1.5000e-08    4.524e-01    4.549e-01    9.000e-01    0.000e+00  
  1.5100e-08    5.274e-01    4.570e-01    0.000e+00    9.000e-01  
  1.5200e-08    4.784e-01    4.504e-01    0.000e+00    9.000e-01  
  1.5300e-08    4.674e-01    4.487e-01    0.000e+00    9.000e-01  
  1.5400e-08    4.641e-01    4.483e-01    0.000e+00    9.000e-01  
  1.5500e-08    4.627e-01    4.485e-01    0.000e+00    9.000e-01  
  1.5600e-08    4.616e-01    4.487e-01    0.000e+00    9.000e-01  
  1.5700e-08    4.610e-01    4.490e-01    0.000e+00    9.000e-01  
  1.5800e-08    4.604e-01    4.493e-01    0.000e+00    9.000e-01  
  1.5900e-08    4.598e-01    4.495e-01    0.000e+00    9.000e-01  
  1.6000e-08    4.595e-01    4.497e-01    0.000e+00    9.000e-01  
  1.6100e-08    4.591e-01    4.499e-01    0.000e+00    9.000e-01  
  1.6200e-08    4.588e-01    4.502e-01    0.000e+00    9.000e-01  
  1.6300e-08    4.585e-01    4.504e-01    0.000e+00    9.000e-01  
  1.6400e-08    4.581e-01    4.506e-01    0.000e+00    9.000e-01  
  1.6500e-08    4.579e-01    4.507e-01    0.000e+00    9.000e-01  
  1.6600e-08    4.577e-01    4.509e-01    0.000e+00    9.000e-01  
  1.6700e-08    4.575e-01    4.510e-01    0.000e+00    9.000e-01  
  1.6800e-08    4.573e-01    4.512e-01    0.000e+00    9.000e-01  
  1.6900e-08    4.570e-01    4.513e-01    0.000e+00    9.000e-01  
  1.7000e-08    4.568e-01    4.515e-01    0.000e+00    9.000e-01  
  1.7100e-08    4.566e-01    4.516e-01    0.000e+00    9.000e-01  
  1.7200e-08    4.564e-01    4.518e-01    0.000e+00    9.000e-01  
  1.7300e-08    4.563e-01    4.519e-01    0.000e+00    9.000e-01  
  1.7400e-08    4.561e-01    4.520e-01    0.000e+00    9.000e-01  
  1.7500e-08    4.559e-01    4.521e-01    0.000e+00    9.000e-01  
  1.7600e-08    8.724e-01    4.748e-01    0.000e+00    9.000e-01  
  1.7700e-08    8.999e-01    5.622e-02    0.000e+00    9.000e-01  
  1.7800e-08    8.999e-01    5.621e-02    0.000e+00    9.000e-01  
  1.7900e-08    9.000e-01    5.611e-02    0.000e+00    9.000e-01  
  1.8000e-08    9.000e-01    5.614e-02    0.000e+00    9.000e-01  
  1.8100e-08    8.999e-01    5.621e-02    0.000e+00    9.000e-01  
  1.8200e-08    9.000e-01    5.619e-02    0.000e+00    9.000e-01  
  1.8300e-08    9.000e-01    5.615e-02    0.000e+00    9.000e-01  
  1.8400e-08    9.000e-01    5.612e-02    0.000e+00    9.000e-01  
  1.8500e-08    9.001e-01    5.610e-02    0.000e+00    9.000e-01  
  1.8600e-08    9.000e-01    5.612e-02    0.000e+00    9.000e-01  
  1.8700e-08    9.000e-01    5.614e-02    0.000e+00    9.000e-01  
  1.8800e-08    9.000e-01    5.617e-02    0.000e+00    9.000e-01  
  1.8900e-08    9.000e-01    5.619e-02    0.000e+00    9.000e-01  
  1.9000e-08    8.999e-01    5.621e-02    0.000e+00    9.000e-01  
  1.9100e-08    8.999e-01    5.621e-02    0.000e+00    9.000e-01  
  1.9200e-08    9.000e-01    5.620e-02    0.000e+00    9.000e-01  
  1.9300e-08    9.000e-01    5.619e-02    0.000e+00    9.000e-01  
  1.9400e-08    9.000e-01    5.617e-02    0.000e+00    9.000e-01  
  1.9500e-08    9.000e-01    5.616e-02    0.000e+00    9.000e-01  
  1.9600e-08    9.000e-01    5.615e-02    0.000e+00    9.000e-01  
  1.9700e-08    9.000e-01    5.613e-02    0.000e+00    9.000e-01  
  1.9800e-08    9.000e-01    5.612e-02    0.000e+00    9.000e-01  
  1.9900e-08    9.000e-01    5.611e-02    0.000e+00    9.000e-01  
  2.0000e-08    9.001e-01    5.610e-02    0.000e+00    9.000e-01  
  2.0100e-08    8.103e-01    6.604e-02    0.000e+00    9.000e-01  
  2.0200e-08    8.090e-01    6.642e-02    0.000e+00    9.000e-01  
  2.0300e-08    8.090e-01    6.642e-02    0.000e+00    9.000e-01  
  2.0400e-08    8.091e-01    6.645e-02    0.000e+00    9.000e-01  
  2.0500e-08    8.090e-01    6.643e-02    0.000e+00    9.000e-01  
  2.0600e-08    8.090e-01    6.642e-02    0.000e+00    9.000e-01  
  2.0700e-08    8.090e-01    6.641e-02    0.000e+00    9.000e-01  
  2.0800e-08    8.090e-01    6.640e-02    0.000e+00    9.000e-01  
  2.0900e-08    8.090e-01    6.641e-02    0.000e+00    9.000e-01  
  2.1000e-08    8.090e-01    6.641e-02    0.000e+00    9.000e-01  
  2.1100e-08    8.090e-01    6.642e-02    0.000e+00    9.000e-01  
  2.1200e-08    8.090e-01    6.642e-02    0.000e+00    9.000e-01  
  2.1300e-08    8.090e-01    6.643e-02    0.000e+00    9.000e-01  
  2.1400e-08    8.090e-01    6.643e-02    0.000e+00    9.000e-01  
  2.1500e-08    8.090e-01    6.643e-02    0.000e+00    9.000e-01  
  2.1600e-08    8.090e-01    6.644e-02    0.000e+00    9.000e-01  
  2.1700e-08    8.090e-01    6.644e-02    0.000e+00    9.000e-01  
  2.1800e-08    8.091e-01    6.645e-02    0.000e+00    9.000e-01  
  2.1900e-08    8.090e-01    6.644e-02    0.000e+00    9.000e-01  
  2.2000e-08    8.090e-01    6.643e-02    0.000e+00    9.000e-01  
  2.2100e-08    8.090e-01    6.643e-02    0.000e+00    9.000e-01  
  2.2200e-08    8.090e-01    6.642e-02    0.000e+00    9.000e-01  
  2.2300e-08    8.090e-01    6.642e-02    0.000e+00    9.000e-01  
  2.2400e-08    8.090e-01    6.641e-02    0.000e+00    9.000e-01  
  2.2500e-08    8.090e-01    6.640e-02    0.000e+00    9.000e-01  
  2.2600e-08    8.052e-01    6.756e-02    9.000e-01    0.000e+00  
  2.2700e-08    8.090e-01    6.642e-02    9.000e-01    0.000e+00  
  2.2800e-08    8.090e-01    6.642e-02    9.000e-01    0.000e+00  
  2.2900e-08    8.090e-01    6.645e-02    9.000e-01    0.000e+00  
  2.3000e-08    8.090e-01    6.644e-02    9.000e-01    0.000e+00  
  2.3100e-08    8.090e-01    6.643e-02    9.000e-01    0.000e+00  
  2.3200e-08    8.090e-01    6.642e-02    9.000e-01    0.000e+00  
  2.3300e-08    8.090e-01    6.641e-02    9.000e-01    0.000e+00  
  2.3400e-08    8.090e-01    6.640e-02    9.000e-01    0.000e+00  
  2.3500e-08    8.090e-01    6.641e-02    9.000e-01    0.000e+00  
  2.3600e-08    8.090e-01    6.641e-02    9.000e-01    0.000e+00  
  2.3700e-08    8.090e-01    6.641e-02    9.000e-01    0.000e+00  
  2.3800e-08    8.090e-01    6.641e-02    9.000e-01    0.000e+00  
  2.3900e-08    8.090e-01    6.642e-02    9.000e-01    0.000e+00  
  2.4000e-08    8.090e-01    6.642e-02    9.000e-01    0.000e+00  
  2.4100e-08    8.090e-01    6.642e-02    9.000e-01    0.000e+00  
  2.4200e-08    8.090e-01    6.643e-02    9.000e-01    0.000e+00  
  2.4300e-08    8.090e-01    6.643e-02    9.000e-01    0.000e+00  
  2.4400e-08    8.090e-01    6.643e-02    9.000e-01    0.000e+00  
  2.4500e-08    8.090e-01    6.643e-02    9.000e-01    0.000e+00  
  2.4600e-08    8.090e-01    6.644e-02    9.000e-01    0.000e+00  
  2.4700e-08    8.090e-01    6.644e-02    9.000e-01    0.000e+00  
  2.4800e-08    8.090e-01    6.644e-02    9.000e-01    0.000e+00  
  2.4900e-08    8.090e-01    6.644e-02    9.000e-01    0.000e+00  
  2.5000e-08    8.090e-01    6.645e-02    9.000e-01    0.000e+00  
  2.5100e-08    8.101e-01    6.606e-02    0.000e+00    9.000e-01  
  2.5200e-08    8.091e-01    6.642e-02    0.000e+00    9.000e-01  
  2.5300e-08    8.090e-01    6.642e-02    0.000e+00    9.000e-01  
  2.5400e-08    8.090e-01    6.642e-02    0.000e+00    9.000e-01  
  2.5500e-08    8.090e-01    6.642e-02    0.000e+00    9.000e-01  
  2.5600e-08    8.090e-01    6.643e-02    0.000e+00    9.000e-01  
  2.5700e-08    8.090e-01    6.643e-02    0.000e+00    9.000e-01  
  2.5800e-08    8.090e-01    6.643e-02    0.000e+00    9.000e-01  
  2.5900e-08    8.090e-01    6.643e-02    0.000e+00    9.000e-01  
  2.6000e-08    8.090e-01    6.643e-02    0.000e+00    9.000e-01  
  2.6100e-08    8.090e-01    6.643e-02    0.000e+00    9.000e-01  
  2.6200e-08    8.090e-01    6.643e-02    0.000e+00    9.000e-01  
  2.6300e-08    8.090e-01    6.642e-02    0.000e+00    9.000e-01  
  2.6400e-08    8.090e-01    6.642e-02    0.000e+00    9.000e-01  
  2.6500e-08    8.090e-01    6.642e-02    0.000e+00    9.000e-01  
  2.6600e-08    8.090e-01    6.642e-02    0.000e+00    9.000e-01  
  2.6700e-08    8.090e-01    6.642e-02    0.000e+00    9.000e-01  
  2.6800e-08    8.090e-01    6.642e-02    0.000e+00    9.000e-01  
  2.6900e-08    8.090e-01    6.642e-02    0.000e+00    9.000e-01  
  2.7000e-08    8.090e-01    6.643e-02    0.000e+00    9.000e-01  
  2.7100e-08    8.090e-01    6.643e-02    0.000e+00    9.000e-01  
  2.7200e-08    8.090e-01    6.643e-02    0.000e+00    9.000e-01  
  2.7300e-08    8.090e-01    6.643e-02    0.000e+00    9.000e-01  
  2.7400e-08    8.090e-01    6.643e-02    0.000e+00    9.000e-01  
  2.7500e-08    8.090e-01    6.643e-02    0.000e+00    9.000e-01  
  2.7600e-08    8.930e-02    2.901e-01    0.000e+00    9.000e-01  
  2.7700e-08    1.158e-02    9.002e-01    0.000e+00    9.000e-01  
  2.7800e-08    1.151e-02    9.001e-01    0.000e+00    9.000e-01  
  2.7900e-08    1.145e-02    8.999e-01    0.000e+00    9.000e-01  
  2.8000e-08    1.156e-02    9.001e-01    0.000e+00    9.000e-01  
  2.8100e-08    1.146e-02    9.000e-01    0.000e+00    9.000e-01  
  2.8200e-08    1.138e-02    8.998e-01    0.000e+00    9.000e-01  
  2.8300e-08    1.144e-02    8.999e-01    0.000e+00    9.000e-01  
  2.8400e-08    1.150e-02    9.000e-01    0.000e+00    9.000e-01  
  2.8500e-08    1.156e-02    9.001e-01    0.000e+00    9.000e-01  
  2.8600e-08    1.155e-02    9.001e-01    0.000e+00    9.000e-01  
  2.8700e-08    1.152e-02    9.001e-01    0.000e+00    9.000e-01  
  2.8800e-08    1.148e-02    9.000e-01    0.000e+00    9.000e-01  
  2.8900e-08    1.145e-02    8.999e-01    0.000e+00    9.000e-01  
  2.9000e-08    1.141e-02    8.999e-01    0.000e+00    9.000e-01  
  2.9100e-08    1.137e-02    8.998e-01    0.000e+00    9.000e-01  
  2.9200e-08    1.139e-02    8.998e-01    0.000e+00    9.000e-01  
  2.9300e-08    1.142e-02    8.999e-01    0.000e+00    9.000e-01  
  2.9400e-08    1.144e-02    8.999e-01    0.000e+00    9.000e-01  
  2.9500e-08    1.146e-02    9.000e-01    0.000e+00    9.000e-01  
  2.9600e-08    1.148e-02    9.000e-01    0.000e+00    9.000e-01  
  2.9700e-08    1.151e-02    9.000e-01    0.000e+00    9.000e-01  
  2.9800e-08    1.153e-02    9.001e-01    0.000e+00    9.000e-01  
  2.9900e-08    1.155e-02    9.001e-01    0.000e+00    9.000e-01  
  3.0000e-08    1.158e-02    9.002e-01    0.000e+00    9.000e-01  
  3.0100e-08    5.002e-02    9.001e-01    0.000e+00    9.000e-01  
  3.0200e-08    5.621e-02    9.000e-01    0.000e+00    9.000e-01  
  3.0300e-08    5.615e-02    9.000e-01    0.000e+00    9.000e-01  
  3.0400e-08    5.617e-02    9.000e-01    0.000e+00    9.000e-01  
  3.0500e-08    5.616e-02    9.000e-01    0.000e+00    9.000e-01  
  3.0600e-08    5.616e-02    9.000e-01    0.000e+00    9.000e-01  
  3.0700e-08    5.615e-02    9.000e-01    0.000e+00    9.000e-01  
  3.0800e-08    5.614e-02    9.000e-01    0.000e+00    9.000e-01  
  3.0900e-08    5.614e-02    9.000e-01    0.000e+00    9.000e-01  
  3.1000e-08    5.614e-02    9.000e-01    0.000e+00    9.000e-01  
  3.1100e-08    5.614e-02    9.000e-01    0.000e+00    9.000e-01  
  3.1200e-08    5.615e-02    9.000e-01    0.000e+00    9.000e-01  
  3.1300e-08    5.615e-02    9.000e-01    0.000e+00    9.000e-01  
  3.1400e-08    5.615e-02    9.000e-01    0.000e+00    9.000e-01  
  3.1500e-08    5.616e-02    9.000e-01    0.000e+00    9.000e-01  
  3.1600e-08    5.616e-02    9.000e-01    0.000e+00    9.000e-01  
  3.1700e-08    5.616e-02    9.000e-01    0.000e+00    9.000e-01  
  3.1800e-08    5.616e-02    9.000e-01    0.000e+00    9.000e-01  
  3.1900e-08    5.617e-02    9.000e-01    0.000e+00    9.000e-01  
  3.2000e-08    5.617e-02    9.000e-01    0.000e+00    9.000e-01  
  3.2100e-08    5.617e-02    9.000e-01    0.000e+00    9.000e-01  
  3.2200e-08    5.616e-02    9.000e-01    0.000e+00    9.000e-01  
  3.2300e-08    5.615e-02    9.000e-01    0.000e+00    9.000e-01  
  3.2400e-08    5.615e-02    9.000e-01    0.000e+00    9.000e-01  
  3.2500e-08    5.614e-02    9.000e-01    0.000e+00    9.000e-01  
  3.2600e-08    7.663e-02    9.000e-01    9.000e-01    0.000e+00  
  3.2700e-08    5.615e-02    9.000e-01    9.000e-01    0.000e+00  
  3.2800e-08    5.617e-02    9.000e-01    9.000e-01    0.000e+00  
  3.2900e-08    5.618e-02    9.000e-01    9.000e-01    0.000e+00  
  3.3000e-08    5.613e-02    9.000e-01    9.000e-01    0.000e+00  
  3.3100e-08    5.611e-02    9.000e-01    9.000e-01    0.000e+00  
  3.3200e-08    5.613e-02    9.000e-01    9.000e-01    0.000e+00  
  3.3300e-08    5.615e-02    9.000e-01    9.000e-01    0.000e+00  
  3.3400e-08    5.616e-02    9.000e-01    9.000e-01    0.000e+00  
  3.3500e-08    5.618e-02    9.000e-01    9.000e-01    0.000e+00  
  3.3600e-08    5.620e-02    9.000e-01    9.000e-01    0.000e+00  
  3.3700e-08    5.620e-02    9.000e-01    9.000e-01    0.000e+00  
  3.3800e-08    5.619e-02    9.000e-01    9.000e-01    0.000e+00  
  3.3900e-08    5.618e-02    9.000e-01    9.000e-01    0.000e+00  
  3.4000e-08    5.618e-02    9.000e-01    9.000e-01    0.000e+00  
  3.4100e-08    5.617e-02    9.000e-01    9.000e-01    0.000e+00  
  3.4200e-08    5.616e-02    9.000e-01    9.000e-01    0.000e+00  
  3.4300e-08    5.615e-02    9.000e-01    9.000e-01    0.000e+00  
  3.4400e-08    5.614e-02    9.000e-01    9.000e-01    0.000e+00  
  3.4500e-08    5.613e-02    9.000e-01    9.000e-01    0.000e+00  
  3.4600e-08    5.613e-02    9.000e-01    9.000e-01    0.000e+00  
  3.4700e-08    5.612e-02    9.000e-01    9.000e-01    0.000e+00  
  3.4800e-08    5.611e-02    9.000e-01    9.000e-01    0.000e+00  
  3.4900e-08    5.614e-02    9.000e-01    9.000e-01    0.000e+00  
  3.5000e-08    5.619e-02    9.000e-01    9.000e-01    0.000e+00  
  3.5100e-08    5.618e-02    9.000e-01    9.000e-01    0.000e+00  
  3.5200e-08    5.617e-02    9.000e-01    9.000e-01    0.000e+00  
  3.5300e-08    5.616e-02    9.000e-01    9.000e-01    0.000e+00  
  3.5400e-08    5.616e-02    9.000e-01    9.000e-01    0.000e+00  
  3.5500e-08    5.616e-02    9.000e-01    9.000e-01    0.000e+00  
  3.5600e-08    5.616e-02    9.000e-01    9.000e-01    0.000e+00  
  3.5700e-08    5.616e-02    9.000e-01    9.000e-01    0.000e+00  
  3.5800e-08    5.616e-02    9.000e-01    9.000e-01    0.000e+00  
  3.5900e-08    5.616e-02    9.000e-01    9.000e-01    0.000e+00  
  3.6000e-08    5.615e-02    9.000e-01    9.000e-01    0.000e+00  
  3.6100e-08    5.615e-02    9.000e-01    9.000e-01    0.000e+00  
  3.6200e-08    5.615e-02    9.000e-01    9.000e-01    0.000e+00  
  3.6300e-08    5.615e-02    9.000e-01    9.000e-01    0.000e+00  
  3.6400e-08    5.615e-02    9.000e-01    9.000e-01    0.000e+00  
  3.6500e-08    5.615e-02    9.000e-01    9.000e-01    0.000e+00  
  3.6600e-08    5.615e-02    9.000e-01    9.000e-01    0.000e+00  
  3.6700e-08    5.615e-02    9.000e-01    9.000e-01    0.000e+00  
  3.6800e-08    5.615e-02    9.000e-01    9.000e-01    0.000e+00  
  3.6900e-08    5.616e-02    9.000e-01    9.000e-01    0.000e+00  
  3.7000e-08    5.616e-02    9.000e-01    9.000e-01    0.000e+00  
  3.7100e-08    5.616e-02    9.000e-01    9.000e-01    0.000e+00  
  3.7200e-08    5.616e-02    9.000e-01    9.000e-01    0.000e+00  
  3.7300e-08    5.616e-02    9.000e-01    9.000e-01    0.000e+00  
  3.7400e-08    5.616e-02    9.000e-01    9.000e-01    0.000e+00  
  3.7500e-08    5.616e-02    9.000e-01    9.000e-01    0.000e+00  
  3.7600e-08    5.616e-02    9.000e-01    9.000e-01    0.000e+00  
  3.7700e-08    5.616e-02    9.000e-01    9.000e-01    0.000e+00  
  3.7800e-08    5.616e-02    9.000e-01    9.000e-01    0.000e+00  
  3.7900e-08    5.616e-02    9.000e-01    9.000e-01    0.000e+00  
  3.8000e-08    5.616e-02    9.000e-01    9.000e-01    0.000e+00  
  3.8100e-08    5.616e-02    9.000e-01    9.000e-01    0.000e+00  
  3.8200e-08    5.616e-02    9.000e-01    9.000e-01    0.000e+00  
  3.8300e-08    5.616e-02    9.000e-01    9.000e-01    0.000e+00  
  3.8400e-08    5.616e-02    9.000e-01    9.000e-01    0.000e+00  
  3.8500e-08    5.616e-02    9.000e-01    9.000e-01    0.000e+00  
  3.8600e-08    5.616e-02    9.000e-01    9.000e-01    0.000e+00  
  3.8700e-08    5.616e-02    9.000e-01    9.000e-01    0.000e+00  
  3.8800e-08    5.616e-02    9.000e-01    9.000e-01    0.000e+00  
  3.8900e-08    5.616e-02    9.000e-01    9.000e-01    0.000e+00  
  3.9000e-08    5.616e-02    9.000e-01    9.000e-01    0.000e+00  
  3.9100e-08    5.616e-02    9.000e-01    9.000e-01    0.000e+00  
  3.9200e-08    5.616e-02    9.000e-01    9.000e-01    0.000e+00  
  3.9300e-08    5.616e-02    9.000e-01    9.000e-01    0.000e+00  
  3.9400e-08    5.616e-02    9.000e-01    9.000e-01    0.000e+00  
  3.9500e-08    5.616e-02    9.000e-01    9.000e-01    0.000e+00  
  3.9600e-08    5.616e-02    9.000e-01    9.000e-01    0.000e+00  
  3.9700e-08    5.615e-02    9.000e-01    9.000e-01    0.000e+00  
  3.9800e-08    5.615e-02    9.000e-01    9.000e-01    0.000e+00  
  3.9900e-08    5.615e-02    9.000e-01    9.000e-01    0.000e+00  
  4.0000e-08    5.615e-02    9.000e-01    9.000e-01    0.000e+00  
y
x

        time    voltage    
                    rbl    
  0.0000e+00    4.863e-03  
  1.0000e-10    4.863e-03  
  2.0000e-10    4.863e-03  
  3.0000e-10    4.863e-03  
  4.0000e-10    4.863e-03  
  5.0000e-10    4.863e-03  
  6.0000e-10    4.863e-03  
  7.0000e-10    4.863e-03  
  8.0000e-10    4.863e-03  
  9.0000e-10    4.863e-03  
  1.0000e-09    4.863e-03  
  1.1000e-09    4.863e-03  
  1.2000e-09    4.863e-03  
  1.3000e-09    4.863e-03  
  1.4000e-09    4.863e-03  
  1.5000e-09    4.863e-03  
  1.6000e-09    4.863e-03  
  1.7000e-09    4.863e-03  
  1.8000e-09    4.863e-03  
  1.9000e-09    4.863e-03  
  2.0000e-09    4.863e-03  
  2.1000e-09    4.863e-03  
  2.2000e-09    4.863e-03  
  2.3000e-09    4.863e-03  
  2.4000e-09    4.863e-03  
  2.5000e-09    4.863e-03  
  2.6000e-09    4.863e-03  
  2.7000e-09    4.863e-03  
  2.8000e-09    4.863e-03  
  2.9000e-09    4.863e-03  
  3.0000e-09    4.863e-03  
  3.1000e-09    4.863e-03  
  3.2000e-09    4.863e-03  
  3.3000e-09    4.863e-03  
  3.4000e-09    4.863e-03  
  3.5000e-09    4.863e-03  
  3.6000e-09    4.863e-03  
  3.7000e-09    4.863e-03  
  3.8000e-09    4.863e-03  
  3.9000e-09    4.863e-03  
  4.0000e-09    4.863e-03  
  4.1000e-09    4.863e-03  
  4.2000e-09    4.863e-03  
  4.3000e-09    4.863e-03  
  4.4000e-09    4.863e-03  
  4.5000e-09    4.863e-03  
  4.6000e-09    4.863e-03  
  4.7000e-09    4.863e-03  
  4.8000e-09    4.863e-03  
  4.9000e-09    4.863e-03  
  5.0000e-09    4.863e-03  
  5.1000e-09    2.706e-02  
  5.2000e-09    1.224e-02  
  5.3000e-09    8.149e-03  
  5.4000e-09    7.378e-03  
  5.5000e-09    7.178e-03  
  5.6000e-09    7.020e-03  
  5.7000e-09    6.892e-03  
  5.8000e-09    6.767e-03  
  5.9000e-09    6.677e-03  
  6.0000e-09    6.587e-03  
  6.1000e-09    6.497e-03  
  6.2000e-09    6.407e-03  
  6.3000e-09    6.317e-03  
  6.4000e-09    6.241e-03  
  6.5000e-09    6.184e-03  
  6.6000e-09    6.127e-03  
  6.7000e-09    6.071e-03  
  6.8000e-09    6.014e-03  
  6.9000e-09    5.958e-03  
  7.0000e-09    5.901e-03  
  7.1000e-09    5.845e-03  
  7.2000e-09    5.788e-03  
  7.3000e-09    5.749e-03  
  7.4000e-09    5.713e-03  
  7.5000e-09    5.676e-03  
  7.6000e-09    2.437e-02  
  7.7000e-09    6.543e-03  
  7.8000e-09    4.833e-03  
  7.9000e-09    4.651e-03  
  8.0000e-09    4.490e-03  
  8.1000e-09    4.378e-03  
  8.2000e-09    4.267e-03  
  8.3000e-09    4.168e-03  
  8.4000e-09    4.102e-03  
  8.5000e-09    4.035e-03  
  8.6000e-09    3.968e-03  
  8.7000e-09    3.901e-03  
  8.8000e-09    3.836e-03  
  8.9000e-09    3.811e-03  
  9.0000e-09    3.786e-03  
  9.1000e-09    3.760e-03  
  9.2000e-09    3.735e-03  
  9.3000e-09    3.710e-03  
  9.4000e-09    3.685e-03  
  9.5000e-09    3.659e-03  
  9.6000e-09    3.634e-03  
  9.7000e-09    3.616e-03  
  9.8000e-09    3.605e-03  
  9.9000e-09    3.594e-03  
  1.0000e-08    3.583e-03  
  1.0100e-08   -3.958e-02  
  1.0200e-08   -9.512e-03  
  1.0300e-08   -2.150e-03  
  1.0400e-08   -1.190e-04  
  1.0500e-08    4.726e-04  
  1.0600e-08    7.369e-04  
  1.0700e-08    9.797e-04  
  1.0800e-08    1.182e-03  
  1.0900e-08    1.375e-03  
  1.1000e-08    1.567e-03  
  1.1100e-08    1.760e-03  
  1.1200e-08    1.919e-03  
  1.1300e-08    2.063e-03  
  1.1400e-08    2.206e-03  
  1.1500e-08    2.350e-03  
  1.1600e-08    2.494e-03  
  1.1700e-08    2.637e-03  
  1.1800e-08    2.781e-03  
  1.1900e-08    2.906e-03  
  1.2000e-08    3.008e-03  
  1.2100e-08    3.109e-03  
  1.2200e-08    3.211e-03  
  1.2300e-08    3.313e-03  
  1.2400e-08    3.414e-03  
  1.2500e-08    3.516e-03  
  1.2600e-08    4.112e-01  
  1.2700e-08    4.470e-01  
  1.2800e-08    4.497e-01  
  1.2900e-08    4.506e-01  
  1.3000e-08    4.508e-01  
  1.3100e-08    4.510e-01  
  1.3200e-08    4.513e-01  
  1.3300e-08    4.514e-01  
  1.3400e-08    4.514e-01  
  1.3500e-08    4.515e-01  
  1.3600e-08    4.516e-01  
  1.3700e-08    4.517e-01  
  1.3800e-08    4.517e-01  
  1.3900e-08    4.518e-01  
  1.4000e-08    4.519e-01  
  1.4100e-08    4.519e-01  
  1.4200e-08    4.520e-01  
  1.4300e-08    4.521e-01  
  1.4400e-08    4.521e-01  
  1.4500e-08    4.522e-01  
  1.4600e-08    4.523e-01  
  1.4700e-08    4.523e-01  
  1.4800e-08    4.524e-01  
  1.4900e-08    4.524e-01  
  1.5000e-08    4.524e-01  
  1.5100e-08    2.069e-01  
  1.5200e-08    1.739e-01  
  1.5300e-08    1.664e-01  
  1.5400e-08    1.642e-01  
  1.5500e-08    1.632e-01  
  1.5600e-08    1.624e-01  
  1.5700e-08    1.620e-01  
  1.5800e-08    1.615e-01  
  1.5900e-08    1.611e-01  
  1.6000e-08    1.608e-01  
  1.6100e-08    1.606e-01  
  1.6200e-08    1.603e-01  
  1.6300e-08    1.600e-01  
  1.6400e-08    1.598e-01  
  1.6500e-08    1.596e-01  
  1.6600e-08    1.594e-01  
  1.6700e-08    1.592e-01  
  1.6800e-08    1.590e-01  
  1.6900e-08    1.588e-01  
  1.7000e-08    1.586e-01  
  1.7100e-08    1.584e-01  
  1.7200e-08    1.583e-01  
  1.7300e-08    1.581e-01  
  1.7400e-08    1.580e-01  
  1.7500e-08    1.578e-01  
  1.7600e-08    4.379e-01  
  1.7700e-08    4.564e-01  
  1.7800e-08    4.563e-01  
  1.7900e-08    4.562e-01  
  1.8000e-08    4.561e-01  
  1.8100e-08    4.559e-01  
  1.8200e-08    4.558e-01  
  1.8300e-08    4.557e-01  
  1.8400e-08    4.557e-01  
  1.8500e-08    4.556e-01  
  1.8600e-08    4.554e-01  
  1.8700e-08    4.553e-01  
  1.8800e-08    4.552e-01  
  1.8900e-08    4.551e-01  
  1.9000e-08    4.549e-01  
  1.9100e-08    4.548e-01  
  1.9200e-08    4.547e-01  
  1.9300e-08    4.546e-01  
  1.9400e-08    4.545e-01  
  1.9500e-08    4.544e-01  
  1.9600e-08    4.543e-01  
  1.9700e-08    4.542e-01  
  1.9800e-08    4.541e-01  
  1.9900e-08    4.540e-01  
  2.0000e-08    4.539e-01  
  2.0100e-08    3.934e-01  
  2.0200e-08    3.924e-01  
  2.0300e-08    3.923e-01  
  2.0400e-08    3.923e-01  
  2.0500e-08    3.921e-01  
  2.0600e-08    3.920e-01  
  2.0700e-08    3.919e-01  
  2.0800e-08    3.918e-01  
  2.0900e-08    3.917e-01  
  2.1000e-08    3.916e-01  
  2.1100e-08    3.915e-01  
  2.1200e-08    3.914e-01  
  2.1300e-08    3.913e-01  
  2.1400e-08    3.912e-01  
  2.1500e-08    3.912e-01  
  2.1600e-08    3.911e-01  
  2.1700e-08    3.910e-01  
  2.1800e-08    3.909e-01  
  2.1900e-08    3.908e-01  
  2.2000e-08    3.907e-01  
  2.2100e-08    3.906e-01  
  2.2200e-08    3.905e-01  
  2.2300e-08    3.903e-01  
  2.2400e-08    3.902e-01  
  2.2500e-08    3.901e-01  
  2.2600e-08    8.064e-01  
  2.2700e-08    8.090e-01  
  2.2800e-08    8.090e-01  
  2.2900e-08    8.090e-01  
  2.3000e-08    8.090e-01  
  2.3100e-08    8.090e-01  
  2.3200e-08    8.090e-01  
  2.3300e-08    8.090e-01  
  2.3400e-08    8.090e-01  
  2.3500e-08    8.090e-01  
  2.3600e-08    8.090e-01  
  2.3700e-08    8.090e-01  
  2.3800e-08    8.090e-01  
  2.3900e-08    8.090e-01  
  2.4000e-08    8.090e-01  
  2.4100e-08    8.090e-01  
  2.4200e-08    8.090e-01  
  2.4300e-08    8.090e-01  
  2.4400e-08    8.090e-01  
  2.4500e-08    8.090e-01  
  2.4600e-08    8.090e-01  
  2.4700e-08    8.090e-01  
  2.4800e-08    8.090e-01  
  2.4900e-08    8.090e-01  
  2.5000e-08    8.090e-01  
  2.5100e-08    6.994e-01  
  2.5200e-08    6.986e-01  
  2.5300e-08    6.984e-01  
  2.5400e-08    6.982e-01  
  2.5500e-08    6.980e-01  
  2.5600e-08    6.978e-01  
  2.5700e-08    6.977e-01  
  2.5800e-08    6.975e-01  
  2.5900e-08    6.973e-01  
  2.6000e-08    6.971e-01  
  2.6100e-08    6.970e-01  
  2.6200e-08    6.968e-01  
  2.6300e-08    6.966e-01  
  2.6400e-08    6.964e-01  
  2.6500e-08    6.963e-01  
  2.6600e-08    6.961e-01  
  2.6700e-08    6.959e-01  
  2.6800e-08    6.957e-01  
  2.6900e-08    6.956e-01  
  2.7000e-08    6.954e-01  
  2.7100e-08    6.952e-01  
  2.7200e-08    6.951e-01  
  2.7300e-08    6.949e-01  
  2.7400e-08    6.947e-01  
  2.7500e-08    6.945e-01  
  2.7600e-08    2.102e-01  
  2.7700e-08    1.579e-01  
  2.7800e-08    1.578e-01  
  2.7900e-08    1.577e-01  
  2.8000e-08    1.577e-01  
  2.8100e-08    1.576e-01  
  2.8200e-08    1.575e-01  
  2.8300e-08    1.575e-01  
  2.8400e-08    1.575e-01  
  2.8500e-08    1.575e-01  
  2.8600e-08    1.575e-01  
  2.8700e-08    1.574e-01  
  2.8800e-08    1.574e-01  
  2.8900e-08    1.573e-01  
  2.9000e-08    1.572e-01  
  2.9100e-08    1.572e-01  
  2.9200e-08    1.571e-01  
  2.9300e-08    1.571e-01  
  2.9400e-08    1.571e-01  
  2.9500e-08    1.571e-01  
  2.9600e-08    1.570e-01  
  2.9700e-08    1.570e-01  
  2.9800e-08    1.570e-01  
  2.9900e-08    1.569e-01  
  3.0000e-08    1.569e-01  
  3.0100e-08    1.827e-01  
  3.0200e-08    1.869e-01  
  3.0300e-08    1.868e-01  
  3.0400e-08    1.867e-01  
  3.0500e-08    1.867e-01  
  3.0600e-08    1.866e-01  
  3.0700e-08    1.866e-01  
  3.0800e-08    1.865e-01  
  3.0900e-08    1.865e-01  
  3.1000e-08    1.864e-01  
  3.1100e-08    1.864e-01  
  3.1200e-08    1.864e-01  
  3.1300e-08    1.863e-01  
  3.1400e-08    1.863e-01  
  3.1500e-08    1.862e-01  
  3.1600e-08    1.862e-01  
  3.1700e-08    1.861e-01  
  3.1800e-08    1.861e-01  
  3.1900e-08    1.860e-01  
  3.2000e-08    1.860e-01  
  3.2100e-08    1.859e-01  
  3.2200e-08    1.859e-01  
  3.2300e-08    1.858e-01  
  3.2400e-08    1.858e-01  
  3.2500e-08    1.857e-01  
  3.2600e-08    8.560e-02  
  3.2700e-08    5.616e-02  
  3.2800e-08    5.618e-02  
  3.2900e-08    5.619e-02  
  3.3000e-08    5.612e-02  
  3.3100e-08    5.609e-02  
  3.3200e-08    5.612e-02  
  3.3300e-08    5.614e-02  
  3.3400e-08    5.617e-02  
  3.3500e-08    5.620e-02  
  3.3600e-08    5.622e-02  
  3.3700e-08    5.622e-02  
  3.3800e-08    5.621e-02  
  3.3900e-08    5.620e-02  
  3.4000e-08    5.618e-02  
  3.4100e-08    5.617e-02  
  3.4200e-08    5.616e-02  
  3.4300e-08    5.615e-02  
  3.4400e-08    5.614e-02  
  3.4500e-08    5.612e-02  
  3.4600e-08    5.611e-02  
  3.4700e-08    5.610e-02  
  3.4800e-08    5.609e-02  
  3.4900e-08    5.613e-02  
  3.5000e-08    5.622e-02  
  3.5100e-08    5.620e-02  
  3.5200e-08    5.617e-02  
  3.5300e-08    5.616e-02  
  3.5400e-08    5.616e-02  
  3.5500e-08    5.616e-02  
  3.5600e-08    5.616e-02  
  3.5700e-08    5.616e-02  
  3.5800e-08    5.616e-02  
  3.5900e-08    5.615e-02  
  3.6000e-08    5.615e-02  
  3.6100e-08    5.615e-02  
  3.6200e-08    5.615e-02  
  3.6300e-08    5.615e-02  
  3.6400e-08    5.615e-02  
  3.6500e-08    5.615e-02  
  3.6600e-08    5.615e-02  
  3.6700e-08    5.615e-02  
  3.6800e-08    5.615e-02  
  3.6900e-08    5.615e-02  
  3.7000e-08    5.615e-02  
  3.7100e-08    5.616e-02  
  3.7200e-08    5.616e-02  
  3.7300e-08    5.616e-02  
  3.7400e-08    5.616e-02  
  3.7500e-08    5.616e-02  
  3.7600e-08    5.616e-02  
  3.7700e-08    5.616e-02  
  3.7800e-08    5.616e-02  
  3.7900e-08    5.616e-02  
  3.8000e-08    5.616e-02  
  3.8100e-08    5.616e-02  
  3.8200e-08    5.616e-02  
  3.8300e-08    5.616e-02  
  3.8400e-08    5.616e-02  
  3.8500e-08    5.616e-02  
  3.8600e-08    5.616e-02  
  3.8700e-08    5.616e-02  
  3.8800e-08    5.616e-02  
  3.8900e-08    5.616e-02  
  3.9000e-08    5.616e-02  
  3.9100e-08    5.616e-02  
  3.9200e-08    5.616e-02  
  3.9300e-08    5.616e-02  
  3.9400e-08    5.615e-02  
  3.9500e-08    5.615e-02  
  3.9600e-08    5.615e-02  
  3.9700e-08    5.615e-02  
  3.9800e-08    5.615e-02  
  3.9900e-08    5.615e-02  
  4.0000e-08    5.615e-02  
y
-----------------------------------------------
x

        time    current    
                    vdd    
  0.0000e+00   -2.698e-08  
  1.0000e-10   -2.698e-08  
  2.0000e-10   -2.698e-08  
  3.0000e-10   -2.698e-08  
  4.0000e-10   -2.698e-08  
  5.0000e-10   -2.698e-08  
  6.0000e-10   -2.698e-08  
  7.0000e-10   -2.698e-08  
  8.0000e-10   -2.698e-08  
  9.0000e-10   -2.698e-08  
  1.0000e-09   -2.698e-08  
  1.1000e-09   -2.698e-08  
  1.2000e-09   -2.698e-08  
  1.3000e-09   -2.698e-08  
  1.4000e-09   -2.698e-08  
  1.5000e-09   -2.698e-08  
  1.6000e-09   -2.698e-08  
  1.7000e-09   -2.698e-08  
  1.8000e-09   -2.698e-08  
  1.9000e-09   -2.698e-08  
  2.0000e-09   -2.698e-08  
  2.1000e-09   -2.698e-08  
  2.2000e-09   -2.698e-08  
  2.3000e-09   -2.698e-08  
  2.4000e-09   -2.698e-08  
  2.5000e-09   -2.698e-08  
  2.6000e-09   -2.698e-08  
  2.7000e-09   -2.698e-08  
  2.8000e-09   -2.698e-08  
  2.9000e-09   -2.698e-08  
  3.0000e-09   -2.698e-08  
  3.1000e-09   -2.698e-08  
  3.2000e-09   -2.698e-08  
  3.3000e-09   -2.698e-08  
  3.4000e-09   -2.698e-08  
  3.5000e-09   -2.698e-08  
  3.6000e-09   -2.698e-08  
  3.7000e-09   -2.698e-08  
  3.8000e-09   -2.698e-08  
  3.9000e-09   -2.698e-08  
  4.0000e-09   -2.698e-08  
  4.1000e-09   -2.698e-08  
  4.2000e-09   -2.698e-08  
  4.3000e-09   -2.698e-08  
  4.4000e-09   -2.698e-08  
  4.5000e-09   -2.698e-08  
  4.6000e-09   -2.698e-08  
  4.7000e-09   -2.698e-08  
  4.8000e-09   -2.698e-08  
  4.9000e-09   -2.698e-08  
  5.0000e-09   -2.698e-08  
  5.1000e-09   -2.070e-08  
  5.2000e-09   -2.644e-08  
  5.3000e-09   -2.713e-08  
  5.4000e-09   -2.716e-08  
  5.5000e-09   -2.711e-08  
  5.6000e-09   -2.707e-08  
  5.7000e-09   -2.704e-08  
  5.8000e-09   -2.702e-08  
  5.9000e-09   -2.700e-08  
  6.0000e-09   -2.699e-08  
  6.1000e-09   -2.697e-08  
  6.2000e-09   -2.695e-08  
  6.3000e-09   -2.694e-08  
  6.4000e-09   -2.693e-08  
  6.5000e-09   -2.693e-08  
  6.6000e-09   -2.693e-08  
  6.7000e-09   -2.692e-08  
  6.8000e-09   -2.692e-08  
  6.9000e-09   -2.692e-08  
  7.0000e-09   -2.692e-08  
  7.1000e-09   -2.692e-08  
  7.2000e-09   -2.692e-08  
  7.3000e-09   -2.691e-08  
  7.4000e-09   -2.691e-08  
  7.5000e-09   -2.691e-08  
  7.6000e-09   -2.305e-08  
  7.7000e-09   -2.789e-08  
  7.8000e-09   -2.780e-08  
  7.9000e-09   -2.765e-08  
  8.0000e-09   -2.754e-08  
  8.1000e-09   -2.747e-08  
  8.2000e-09   -2.741e-08  
  8.3000e-09   -2.735e-08  
  8.4000e-09   -2.733e-08  
  8.5000e-09   -2.730e-08  
  8.6000e-09   -2.727e-08  
  8.7000e-09   -2.725e-08  
  8.8000e-09   -2.722e-08  
  8.9000e-09   -2.723e-08  
  9.0000e-09   -2.723e-08  
  9.1000e-09   -2.723e-08  
  9.2000e-09   -2.723e-08  
  9.3000e-09   -2.724e-08  
  9.4000e-09   -2.724e-08  
  9.5000e-09   -2.724e-08  
  9.6000e-09   -2.724e-08  
  9.7000e-09   -2.724e-08  
  9.8000e-09   -2.724e-08  
  9.9000e-09   -2.724e-08  
  1.0000e-08   -2.723e-08  
  1.0100e-08   -4.632e-08  
  1.0200e-08   -2.905e-08  
  1.0300e-08   -2.782e-08  
  1.0400e-08   -2.753e-08  
  1.0500e-08   -2.750e-08  
  1.0600e-08   -2.746e-08  
  1.0700e-08   -2.742e-08  
  1.0800e-08   -2.740e-08  
  1.0900e-08   -2.738e-08  
  1.1000e-08   -2.736e-08  
  1.1100e-08   -2.734e-08  
  1.1200e-08   -2.732e-08  
  1.1300e-08   -2.730e-08  
  1.1400e-08   -2.728e-08  
  1.1500e-08   -2.726e-08  
  1.1600e-08   -2.724e-08  
  1.1700e-08   -2.721e-08  
  1.1800e-08   -2.719e-08  
  1.1900e-08   -2.718e-08  
  1.2000e-08   -2.716e-08  
  1.2100e-08   -2.715e-08  
  1.2200e-08   -2.714e-08  
  1.2300e-08   -2.713e-08  
  1.2400e-08   -2.712e-08  
  1.2500e-08   -2.710e-08  
  1.2600e-08   -2.818e-08  
  1.2700e-08   -2.755e-08  
  1.2800e-08   -2.725e-08  
  1.2900e-08   -2.715e-08  
  1.3000e-08   -2.712e-08  
  1.3100e-08   -2.711e-08  
  1.3200e-08   -2.709e-08  
  1.3300e-08   -2.707e-08  
  1.3400e-08   -2.706e-08  
  1.3500e-08   -2.705e-08  
  1.3600e-08   -2.704e-08  
  1.3700e-08   -2.703e-08  
  1.3800e-08   -2.702e-08  
  1.3900e-08   -2.702e-08  
  1.4000e-08   -2.702e-08  
  1.4100e-08   -2.701e-08  
  1.4200e-08   -2.701e-08  
  1.4300e-08   -2.700e-08  
  1.4400e-08   -2.700e-08  
  1.4500e-08   -2.700e-08  
  1.4600e-08   -2.699e-08  
  1.4700e-08   -2.699e-08  
  1.4800e-08   -2.699e-08  
  1.4900e-08   -2.698e-08  
  1.5000e-08   -2.698e-08  
  1.5100e-08   -1.692e-08  
  1.5200e-08   -2.817e-08  
  1.5300e-08   -2.753e-08  
  1.5400e-08   -2.734e-08  
  1.5500e-08   -2.728e-08  
  1.5600e-08   -2.724e-08  
  1.5700e-08   -2.722e-08  
  1.5800e-08   -2.719e-08  
  1.5900e-08   -2.717e-08  
  1.6000e-08   -2.716e-08  
  1.6100e-08   -2.715e-08  
  1.6200e-08   -2.714e-08  
  1.6300e-08   -2.713e-08  
  1.6400e-08   -2.712e-08  
  1.6500e-08   -2.710e-08  
  1.6600e-08   -2.708e-08  
  1.6700e-08   -2.707e-08  
  1.6800e-08   -2.705e-08  
  1.6900e-08   -2.703e-08  
  1.7000e-08   -2.701e-08  
  1.7100e-08   -2.700e-08  
  1.7200e-08   -2.698e-08  
  1.7300e-08   -2.698e-08  
  1.7400e-08   -2.698e-08  
  1.7500e-08   -2.697e-08  
  1.7600e-08   -3.896e-07  
  1.7700e-08   -5.642e-07  
  1.7800e-08   -5.642e-07  
  1.7900e-08   -5.659e-07  
  1.8000e-08   -5.654e-07  
  1.8100e-08   -5.642e-07  
  1.8200e-08   -5.645e-07  
  1.8300e-08   -5.652e-07  
  1.8400e-08   -5.659e-07  
  1.8500e-08   -5.662e-07  
  1.8600e-08   -5.658e-07  
  1.8700e-08   -5.654e-07  
  1.8800e-08   -5.650e-07  
  1.8900e-08   -5.646e-07  
  1.9000e-08   -5.642e-07  
  1.9100e-08   -5.641e-07  
  1.9200e-08   -5.644e-07  
  1.9300e-08   -5.646e-07  
  1.9400e-08   -5.649e-07  
  1.9500e-08   -5.651e-07  
  1.9600e-08   -5.653e-07  
  1.9700e-08   -5.656e-07  
  1.9800e-08   -5.658e-07  
  1.9900e-08   -5.661e-07  
  2.0000e-08   -5.663e-07  
  2.0100e-08   -4.653e-07  
  2.0200e-08   -4.525e-07  
  2.0300e-08   -4.524e-07  
  2.0400e-08   -4.523e-07  
  2.0500e-08   -4.524e-07  
  2.0600e-08   -4.524e-07  
  2.0700e-08   -4.525e-07  
  2.0800e-08   -4.525e-07  
  2.0900e-08   -4.525e-07  
  2.1000e-08   -4.525e-07  
  2.1100e-08   -4.525e-07  
  2.1200e-08   -4.524e-07  
  2.1300e-08   -4.524e-07  
  2.1400e-08   -4.524e-07  
  2.1500e-08   -4.524e-07  
  2.1600e-08   -4.524e-07  
  2.1700e-08   -4.524e-07  
  2.1800e-08   -4.523e-07  
  2.1900e-08   -4.524e-07  
  2.2000e-08   -4.524e-07  
  2.2100e-08   -4.524e-07  
  2.2200e-08   -4.524e-07  
  2.2300e-08   -4.525e-07  
  2.2400e-08   -4.525e-07  
  2.2500e-08   -4.525e-07  
  2.2600e-08   -4.467e-07  
  2.2700e-08   -4.524e-07  
  2.2800e-08   -4.524e-07  
  2.2900e-08   -4.524e-07  
  2.3000e-08   -4.524e-07  
  2.3100e-08   -4.524e-07  
  2.3200e-08   -4.524e-07  
  2.3300e-08   -4.524e-07  
  2.3400e-08   -4.524e-07  
  2.3500e-08   -4.524e-07  
  2.3600e-08   -4.524e-07  
  2.3700e-08   -4.524e-07  
  2.3800e-08   -4.524e-07  
  2.3900e-08   -4.524e-07  
  2.4000e-08   -4.524e-07  
  2.4100e-08   -4.524e-07  
  2.4200e-08   -4.524e-07  
  2.4300e-08   -4.524e-07  
  2.4400e-08   -4.524e-07  
  2.4500e-08   -4.524e-07  
  2.4600e-08   -4.524e-07  
  2.4700e-08   -4.524e-07  
  2.4800e-08   -4.524e-07  
  2.4900e-08   -4.524e-07  
  2.5000e-08   -4.524e-07  
  2.5100e-08   -4.534e-07  
  2.5200e-08   -4.525e-07  
  2.5300e-08   -4.524e-07  
  2.5400e-08   -4.524e-07  
  2.5500e-08   -4.524e-07  
  2.5600e-08   -4.525e-07  
  2.5700e-08   -4.525e-07  
  2.5800e-08   -4.525e-07  
  2.5900e-08   -4.524e-07  
  2.6000e-08   -4.524e-07  
  2.6100e-08   -4.524e-07  
  2.6200e-08   -4.524e-07  
  2.6300e-08   -4.524e-07  
  2.6400e-08   -4.524e-07  
  2.6500e-08   -4.524e-07  
  2.6600e-08   -4.524e-07  
  2.6700e-08   -4.524e-07  
  2.6800e-08   -4.524e-07  
  2.6900e-08   -4.524e-07  
  2.7000e-08   -4.524e-07  
  2.7100e-08   -4.524e-07  
  2.7200e-08   -4.524e-07  
  2.7300e-08   -4.525e-07  
  2.7400e-08   -4.525e-07  
  2.7500e-08   -4.525e-07  
  2.7600e-08   -7.692e-07  
  2.7700e-08   -6.571e-07  
  2.7800e-08   -6.610e-07  
  2.7900e-08   -6.652e-07  
  2.8000e-08   -6.576e-07  
  2.8100e-08   -6.644e-07  
  2.8200e-08   -6.701e-07  
  2.8300e-08   -6.659e-07  
  2.8400e-08   -6.618e-07  
  2.8500e-08   -6.577e-07  
  2.8600e-08   -6.578e-07  
  2.8700e-08   -6.603e-07  
  2.8800e-08   -6.628e-07  
  2.8900e-08   -6.653e-07  
  2.9000e-08   -6.678e-07  
  2.9100e-08   -6.704e-07  
  2.9200e-08   -6.690e-07  
  2.9300e-08   -6.674e-07  
  2.9400e-08   -6.658e-07  
  2.9500e-08   -6.642e-07  
  2.9600e-08   -6.626e-07  
  2.9700e-08   -6.610e-07  
  2.9800e-08   -6.594e-07  
  2.9900e-08   -6.578e-07  
  3.0000e-08   -6.562e-07  
  3.0100e-08   -5.758e-07  
  3.0200e-08   -5.651e-07  
  3.0300e-08   -5.651e-07  
  3.0400e-08   -5.651e-07  
  3.0500e-08   -5.651e-07  
  3.0600e-08   -5.652e-07  
  3.0700e-08   -5.652e-07  
  3.0800e-08   -5.652e-07  
  3.0900e-08   -5.652e-07  
  3.1000e-08   -5.652e-07  
  3.1100e-08   -5.652e-07  
  3.1200e-08   -5.652e-07  
  3.1300e-08   -5.652e-07  
  3.1400e-08   -5.651e-07  
  3.1500e-08   -5.651e-07  
  3.1600e-08   -5.651e-07  
  3.1700e-08   -5.651e-07  
  3.1800e-08   -5.651e-07  
  3.1900e-08   -5.651e-07  
  3.2000e-08   -5.651e-07  
  3.2100e-08   -5.651e-07  
  3.2200e-08   -5.651e-07  
  3.2300e-08   -5.651e-07  
  3.2400e-08   -5.651e-07  
  3.2500e-08   -5.652e-07  
  3.2600e-08   -5.400e-07  
  3.2700e-08   -5.652e-07  
  3.2800e-08   -5.651e-07  
  3.2900e-08   -5.651e-07  
  3.3000e-08   -5.652e-07  
  3.3100e-08   -5.652e-07  
  3.3200e-08   -5.652e-07  
  3.3300e-08   -5.651e-07  
  3.3400e-08   -5.651e-07  
  3.3500e-08   -5.651e-07  
  3.3600e-08   -5.651e-07  
  3.3700e-08   -5.651e-07  
  3.3800e-08   -5.651e-07  
  3.3900e-08   -5.651e-07  
  3.4000e-08   -5.651e-07  
  3.4100e-08   -5.651e-07  
  3.4200e-08   -5.651e-07  
  3.4300e-08   -5.651e-07  
  3.4400e-08   -5.651e-07  
  3.4500e-08   -5.652e-07  
  3.4600e-08   -5.652e-07  
  3.4700e-08   -5.652e-07  
  3.4800e-08   -5.652e-07  
  3.4900e-08   -5.651e-07  
  3.5000e-08   -5.651e-07  
  3.5100e-08   -5.651e-07  
  3.5200e-08   -5.651e-07  
  3.5300e-08   -5.651e-07  
  3.5400e-08   -5.651e-07  
  3.5500e-08   -5.651e-07  
  3.5600e-08   -5.651e-07  
  3.5700e-08   -5.651e-07  
  3.5800e-08   -5.651e-07  
  3.5900e-08   -5.651e-07  
  3.6000e-08   -5.651e-07  
  3.6100e-08   -5.651e-07  
  3.6200e-08   -5.651e-07  
  3.6300e-08   -5.651e-07  
  3.6400e-08   -5.651e-07  
  3.6500e-08   -5.651e-07  
  3.6600e-08   -5.651e-07  
  3.6700e-08   -5.651e-07  
  3.6800e-08   -5.651e-07  
  3.6900e-08   -5.651e-07  
  3.7000e-08   -5.651e-07  
  3.7100e-08   -5.651e-07  
  3.7200e-08   -5.651e-07  
  3.7300e-08   -5.651e-07  
  3.7400e-08   -5.651e-07  
  3.7500e-08   -5.651e-07  
  3.7600e-08   -5.651e-07  
  3.7700e-08   -5.651e-07  
  3.7800e-08   -5.651e-07  
  3.7900e-08   -5.651e-07  
  3.8000e-08   -5.651e-07  
  3.8100e-08   -5.651e-07  
  3.8200e-08   -5.651e-07  
  3.8300e-08   -5.651e-07  
  3.8400e-08   -5.651e-07  
  3.8500e-08   -5.651e-07  
  3.8600e-08   -5.651e-07  
  3.8700e-08   -5.651e-07  
  3.8800e-08   -5.651e-07  
  3.8900e-08   -5.651e-07  
  3.9000e-08   -5.651e-07  
  3.9100e-08   -5.651e-07  
  3.9200e-08   -5.651e-07  
  3.9300e-08   -5.651e-07  
  3.9400e-08   -5.651e-07  
  3.9500e-08   -5.651e-07  
  3.9600e-08   -5.651e-07  
  3.9700e-08   -5.651e-07  
  3.9800e-08   -5.651e-07  
  3.9900e-08   -5.651e-07  
  4.0000e-08   -5.651e-07  
y
-----------------------------------------------

          ***** job concluded
1****** HSPICE -- H-2013.03 64-BIT (Mar  7 2013) win64 ******                   
 ******  
 'inverter'

  ******  job statistics summary tnom=  25.000 temp=  25.000 *****

  ******  HSPICE Threads Information  ******

  Command Line Threads Count :     1
  Available CPU Count        :     4
  Actual Threads Count       :     1


  ******  Circuit Statistics  ******
  # nodes       =     462 # elements   =    1046
  # resistors   =     192 # capacitors =     464 # inductors   =       0
  # mutual_inds =       0 # vccs       =     128 # vcvs        =     224
  # cccs        =       0 # ccvs       =       0 # volt_srcs   =      38
  # curr_srcs   =       0 # diodes     =       0 # bjts        =       0
  # jfets       =       0 # mosfets    =       0 # U elements  =       0
  # T elements  =       0 # W elements =       0 # B elements  =       0
  # S elements  =       0 # P elements =       0 # va device   =       0
  # vector_srcs =       0 # N elements =       0


  ******  Runtime Statistics (seconds)  ******

  analysis           time    # points   tot. iter  conv.iter
  op point           1.00           1          45
  transient         17.56         401         913         241 rev=        18
  readin             0.06
  errchk             0.30
  setup              0.00
  output             0.00


           peak memory used         51.39 megabytes
           total cpu time           18.94 seconds
           total elapsed time       18.97 seconds
           job started at     00:22:56 03/01/2018
           job ended   at     00:23:15 03/01/2018


  lic: Release hspice token(s) 
 lic: total license checkout elapse time:        0.02(s)
