 ****** HSPICE -- H-2013.03 64-BIT (Mar  7 2013) win64 ******                   
  Copyright (C) 2013 Synopsys, Inc. All Rights Reserved.                        
  Unpublished-rights reserved under US copyright laws.
  This program is protected by law and is subject to the
  terms and conditions of the license agreement from Synopsys.
  Use of this program is your acceptance to be bound by the
  license agreement. HSPICE is the trademark of Synopsys, Inc.
  Input File: sram180nmtry.sp                                                   
  Command line options: -i sram180nmtry.sp -o sram180nmtry.lis
  lic:  
  lic: FLEXlm: v10.9.8 
  lic: USER:   Dell                 HOSTNAME: DESKTOP-O3DHVG1 
  lic: HOSTID: "28f10e041fd4 00a0c6000017 a0d37a293ca4 a0d37a293ca5" PID:      1
 732 
  lic: Using FLEXlm license file: 
  lic: C:\synopsys\Hspice_H-2013.03\lic.dat\lic.lic 
  lic: Checkout 1 hspice 
  lic: License/Maintenance for hspice will expire on 31-dec-2019/2019.12 
  lic: NODE LOCKED license on hostid "28f10e041fd4 00a0c6000017 a0d37a293ca4 a0d
 37a293ca5" 
  lic:   
 Init: read install configuration file: C:\synopsys\Hspice_H-2013.03\meta.cfg
 scientific notation:
 a=10**-18  f=10**-15  p=10**-12  n=10**-9  u=10**-6
 m=10**-3   k=10**3    x=10**6    g=10**9 
1****** HSPICE -- H-2013.03 64-BIT (Mar  7 2013) win64 ******                   
 ******  
 'inverter'

  ******  circuit name directory
 circuit number to circuit name directory
   number circuitname                     definition         multiplier
        0 main circuit


 circuit parameter definitions
  parameter          =  value 

     0:temp                                                    = 2.700e+01      
     0:m_cnt                                                   = 1.000e+00      
     0:wg                                                      = 4.000e-09      
     0:cb                                                      = 4.000e-11      
     0:lg                                                      = 1.800e-07      
     0:lgef                                                    = 2.000e-07      
     0:vfn                                                     = 0.000e+00      
     0:vfp                                                     = 0.000e+00      
     0:m                                                       = 0.000e+00      
     0:n                                                       = 1.900e+01      
     0:hox                                                     = 4.000e-09      
     1:tox                                                     = 4.000e-09      
     1:csub                                                    = 4.000e-11      
     1:pitch                                                   = 2.000e-08      
     1:n1                                                      = 0.000e+00      
     1:n2                                                      = 1.900e+01      
     1:vfbp                                                    = 0.000e+00      
     1:kgate                                                   = 1.600e+01      
     1:dout                                                    = 0.000e+00      
     1:sout                                                    = 0.000e+00      
     1:tubes                                                   = 1.000e+00      
     1:lch                                                     = 1.800e-07      
     1:lgeff                                                   = 2.000e-07      
     1:lss                                                     = 3.200e-08      
     1:ldd                                                     = 3.200e-08      
     2:tox                                                     = 4.000e-09      
     2:csub                                                    = 4.000e-11      
     2:pitch                                                   = 2.000e-08      
     2:n1                                                      = 0.000e+00      
     2:n2                                                      = 1.000e+01      
     2:vfbp                                                    = 0.000e+00      
     2:kgate                                                   = 1.600e+01      
     2:dout                                                    = 0.000e+00      
     2:sout                                                    = 0.000e+00      
     2:tubes                                                   = 1.000e+00      
     2:lch                                                     = 1.800e-07      
     2:lgeff                                                   = 2.000e-07      
     2:lss                                                     = 3.200e-08      
     2:ldd                                                     = 3.200e-08      
     3:tox                                                     = 4.000e-09      
     3:csub                                                    = 4.000e-11      
     3:pitch                                                   = 2.000e-08      
     3:n1                                                      = 0.000e+00      
     3:n2                                                      = 1.300e+01      
     3:vfbp                                                    = 0.000e+00      
     3:kgate                                                   = 1.600e+01      
     3:dout                                                    = 0.000e+00      
     3:sout                                                    = 0.000e+00      
     3:tubes                                                   = 1.000e+00      
     3:lch                                                     = 1.800e-07      
     3:lgeff                                                   = 2.000e-07      
     3:lss                                                     = 3.200e-08      
     3:ldd                                                     = 3.200e-08      
     4:tox                                                     = 4.000e-09      
     4:csub                                                    = 4.000e-11      
     4:vfbn                                                    = 0.000e+00      
     4:pitch                                                   = 2.000e-08      
     4:n1                                                      = 0.000e+00      
     4:n2                                                      = 1.300e+01      
     4:kgate                                                   = 1.600e+01      
     4:dout                                                    = 0.000e+00      
     4:sout                                                    = 0.000e+00      
     4:tubes                                                   = 1.000e+00      
     4:lch                                                     = 1.800e-07      
     4:lgeff                                                   = 2.000e-07      
     4:lss                                                     = 3.200e-08      
     4:ldd                                                     = 3.200e-08      
     5:tox                                                     = 4.000e-09      
     5:csub                                                    = 4.000e-11      
     5:vfbn                                                    = 0.000e+00      
     5:pitch                                                   = 2.000e-08      
     5:n1                                                      = 0.000e+00      
     5:n2                                                      = 1.900e+01      
     5:kgate                                                   = 1.600e+01      
     5:dout                                                    = 0.000e+00      
     5:sout                                                    = 0.000e+00      
     5:tubes                                                   = 1.000e+00      
     5:lch                                                     = 1.800e-07      
     5:lgeff                                                   = 2.000e-07      
     5:lss                                                     = 3.200e-08      
     5:ldd                                                     = 3.200e-08      
     6:tox                                                     = 4.000e-09      
     6:csub                                                    = 4.000e-11      
     6:vfbn                                                    = 0.000e+00      
     6:pitch                                                   = 2.000e-08      
     6:n1                                                      = 0.000e+00      
     6:n2                                                      = 1.000e+01      
     6:kgate                                                   = 1.600e+01      
     6:dout                                                    = 0.000e+00      
     6:sout                                                    = 0.000e+00      
     6:tubes                                                   = 1.000e+00      
     6:lch                                                     = 1.800e-07      
     6:lgeff                                                   = 2.000e-07      
     6:lss                                                     = 3.200e-08      
     6:ldd                                                     = 3.200e-08      




 constants  - tnom         kt           vt           gapsi        ni
            2.9815e+02   4.1163e-21   2.5692e-02   1.1156e+00   1.2565e+16 
  **info** (sram180nmtry.sp:123) DC voltage reset to initial transient source value              in source        0:vrwl                new dc=  0.0000D+00

 **warning**  associated with encrypted block(s) were suppressed due to encrypted content

1****** HSPICE -- H-2013.03 64-BIT (Mar  7 2013) win64 ******                   
 ******  
 'inverter'

  ******  circuit element summary tnom=  25.000 temp=  25.000 *****


 **** independent sources

     name         node1        node2      dc volt    ac mag    ac phase    type
  vdd  vdd               0                  9.000e-01  0.000e+00  0.000e+00 dc   
  vrwl  rwl               0                  0.000e+00  0.000e+00  0.000e+00 pwl  
                time        value

                 0.000e+00    0.000e+00
                 1.250e-08    0.000e+00
                 1.260e-08    9.000e-01
                 1.500e-08    9.000e-01
                 1.510e-08    0.000e+00
                 2.250e-08    0.000e+00
                 2.260e-08    9.000e-01
                 2.500e-08    9.000e-01
                 2.510e-08    0.000e+00
                 3.250e-08    0.000e+00
                 3.260e-08    9.000e-01
                 3.500e-08    9.000e-01


  vrwlb  rwlb              0                  9.000e-01  0.000e+00  0.000e+00 pwl  
                time        value

                 0.000e+00    9.000e-01
                 1.250e-08    9.000e-01
                 1.260e-08    0.000e+00
                 1.500e-08    0.000e+00
                 1.510e-08    9.000e-01
                 2.250e-08    9.000e-01
                 2.260e-08    0.000e+00
                 2.500e-08    0.000e+00
                 2.510e-08    9.000e-01
                 3.250e-08    9.000e-01
                 3.260e-08    0.000e+00
                 3.500e-08    0.000e+00


  vwbl  wbl               0                  0.000e+00  0.000e+00  0.000e+00 pwl  
                time        value

                 0.000e+00    0.000e+00
                 5.000e-09    0.000e+00
                 5.100e-09    4.500e-01
                 1.000e-08    4.500e-01
                 1.010e-08    0.000e+00
                 1.500e-08    0.000e+00
                 1.510e-08    9.000e-01
                 2.000e-08    9.000e-01
                 2.010e-08    0.000e+00
                 3.000e-08    0.000e+00
                 4.000e-08    0.000e+00


  vwwl  wwl               0                  0.000e+00  0.000e+00  0.000e+00 pwl  
                time        value

                 0.000e+00    0.000e+00
                 7.500e-09    0.000e+00
                 7.600e-09    9.000e-01
                 1.000e-08    9.000e-01
                 1.010e-08    0.000e+00
                 1.750e-08    0.000e+00
                 1.760e-08    9.000e-01
                 2.000e-08    9.000e-01
                 2.010e-08    0.000e+00
                 2.750e-08    0.000e+00
                 2.760e-08    9.000e-01
                 3.000e-08    9.000e-01
                 3.010e-08    0.000e+00
                 4.000e-08    0.000e+00


  vwwlb  wwlb              0                  9.000e-01  0.000e+00  0.000e+00 pwl  
                time        value

                 0.000e+00    9.000e-01
                 7.500e-09    9.000e-01
                 7.600e-09    0.000e+00
                 1.000e-08    0.000e+00
                 1.010e-08    9.000e-01
                 1.750e-08    9.000e-01
                 1.760e-08    0.000e+00
                 2.000e-08    0.000e+00
                 2.010e-08    9.000e-01
                 2.750e-08    9.000e-01
                 2.760e-08    0.000e+00
                 3.000e-08    0.000e+00
                 3.010e-08    9.000e-01
                 4.000e-08    9.000e-01




 **** subcircuit calls
    name        subcircuit         external nodes


         0:xcnt7    pcnfet          0:vdd         0:q           0:n2      
                               0:n2      


         0:xcnt8    pcnfet          0:vdd         0:q           0:qb      
                               0:qb      


         0:xcnt6    pcnfet          0:qb          0:qb          0:n2      
                               0:n2      


         0:xcnt5    ncnfet          0:qb          0:qb          0:n1      
                               0:n1      


         0:xcnt3    ncnfet          0:n1          0:q           0:0       
                               0:0       


         0:xcnt4    ncnfet          0:qb          0:q           0:0       
                               0:0       


         0:xcnt14   pcnfet          0:vdd         0:qb          0:q       
                               0:q       


         0:xcnt13   pcnfet          0:vdd         0:qb          0:n4      
                               0:n4      


         0:xcnt12   pcnfet          0:q           0:q           0:n4      
                               0:n4      


         0:xcnt11   ncnfet          0:q           0:q           0:n3      
                               0:n3      


         0:xcnt10   ncnfet          0:q           0:qb          0:0       
                               0:0       


         0:xcnt9    ncnfet          0:n3          0:qb          0:0       
                               0:0       


         0:xcnt2    pcnfet          0:q           0:wwlb        0:wbl     
                               0:wbl     


         0:xcnt1    ncnfet          0:wbl         0:wwl         0:q       
                               0:q       


         0:xcnt18   pcnfet          0:rbl         0:rwlb        0:q       
                               0:q       


         0:xcnt17   ncnfet          0:q           0:rwl         0:rbl     
                               0:rbl     


  
1****** HSPICE -- H-2013.03 64-BIT (Mar  7 2013) win64 ******                   
 ******  
 'inverter'

  ******  element node table
                                                                                      
 0                vdd              vrwl             vrwlb            vwbl             
                  vwwl             vwwlb                                              
 rwl              vrwl                                                                
 rwlb             vrwlb                                                               
 vdd              vdd                                                                 
 wbl              vwbl                                                                
 wwl              vwwl                                                                
 wwlb             vwwlb                                                               
  **warning** PIVOT option setting is simplified, pivot = 13 is obsolete,
              automatically switch to pivot = 1.
 *****************************************************************
 ******  option summary
 ******
 runlvl  = 3         bypass  = 2         
  Opening plot unit= 79
 file=sram180nmtry.pa0

1****** HSPICE -- H-2013.03 64-BIT (Mar  7 2013) win64 ******                   
 ******  
 'inverter'

  ******  operating point information tnom=  25.000 temp=  25.000 *****
 ***** operating point status is voltage   simulation time is   0.000e+00
     node    =voltage       node    =voltage       node    =voltage

 + 0:n1      = 1.313e-02  0:n2      = 8.866e-01  0:n3      = 1.313e-02
 + 0:n4      = 8.866e-01  0:q       = 4.495e-01  0:qb      = 4.495e-01
 + 0:rbl     = 1.031e-01  0:rwl     = 0.000e+00  0:rwlb    = 9.000e-01
 + 0:vdd     = 9.000e-01  0:wbl     = 0.000e+00  0:wwl     = 0.000e+00
 + 0:wwlb    = 9.000e-01

 ******  
 'inverter'

  ******  transient analysis tnom=  25.000 temp=  25.000 *****
x

        time    voltage      voltage      voltage      voltage    
                     q           qb           rwl         rwlb    
  0.0000e+00    4.495e-01    4.495e-01    0.000e+00    9.000e-01  
  1.0000e-10    4.495e-01    4.495e-01    0.000e+00    9.000e-01  
  2.0000e-10    4.495e-01    4.495e-01    0.000e+00    9.000e-01  
  3.0000e-10    4.495e-01    4.495e-01    0.000e+00    9.000e-01  
  4.0000e-10    4.495e-01    4.495e-01    0.000e+00    9.000e-01  
  5.0000e-10    4.495e-01    4.495e-01    0.000e+00    9.000e-01  
  6.0000e-10    4.495e-01    4.495e-01    0.000e+00    9.000e-01  
  7.0000e-10    4.495e-01    4.495e-01    0.000e+00    9.000e-01  
  8.0000e-10    4.495e-01    4.495e-01    0.000e+00    9.000e-01  
  9.0000e-10    4.495e-01    4.495e-01    0.000e+00    9.000e-01  
  1.0000e-09    4.495e-01    4.495e-01    0.000e+00    9.000e-01  
  1.1000e-09    4.495e-01    4.495e-01    0.000e+00    9.000e-01  
  1.2000e-09    4.495e-01    4.495e-01    0.000e+00    9.000e-01  
  1.3000e-09    4.495e-01    4.495e-01    0.000e+00    9.000e-01  
  1.4000e-09    4.495e-01    4.495e-01    0.000e+00    9.000e-01  
  1.5000e-09    4.495e-01    4.495e-01    0.000e+00    9.000e-01  
  1.6000e-09    4.495e-01    4.495e-01    0.000e+00    9.000e-01  
  1.7000e-09    4.495e-01    4.495e-01    0.000e+00    9.000e-01  
  1.8000e-09    4.495e-01    4.495e-01    0.000e+00    9.000e-01  
  1.9000e-09    4.495e-01    4.495e-01    0.000e+00    9.000e-01  
  2.0000e-09    4.495e-01    4.495e-01    0.000e+00    9.000e-01  
  2.1000e-09    4.495e-01    4.495e-01    0.000e+00    9.000e-01  
  2.2000e-09    4.495e-01    4.495e-01    0.000e+00    9.000e-01  
  2.3000e-09    4.495e-01    4.495e-01    0.000e+00    9.000e-01  
  2.4000e-09    4.495e-01    4.495e-01    0.000e+00    9.000e-01  
  2.5000e-09    4.495e-01    4.495e-01    0.000e+00    9.000e-01  
  2.6000e-09    4.495e-01    4.495e-01    0.000e+00    9.000e-01  
  2.7000e-09    4.495e-01    4.495e-01    0.000e+00    9.000e-01  
  2.8000e-09    4.495e-01    4.495e-01    0.000e+00    9.000e-01  
  2.9000e-09    4.495e-01    4.495e-01    0.000e+00    9.000e-01  
  3.0000e-09    4.495e-01    4.495e-01    0.000e+00    9.000e-01  
  3.1000e-09    4.495e-01    4.495e-01    0.000e+00    9.000e-01  
  3.2000e-09    4.495e-01    4.495e-01    0.000e+00    9.000e-01  
  3.3000e-09    4.495e-01    4.495e-01    0.000e+00    9.000e-01  
  3.4000e-09    4.495e-01    4.495e-01    0.000e+00    9.000e-01  
  3.5000e-09    4.495e-01    4.495e-01    0.000e+00    9.000e-01  
  3.6000e-09    4.495e-01    4.495e-01    0.000e+00    9.000e-01  
  3.7000e-09    4.495e-01    4.495e-01    0.000e+00    9.000e-01  
  3.8000e-09    4.495e-01    4.495e-01    0.000e+00    9.000e-01  
  3.9000e-09    4.495e-01    4.495e-01    0.000e+00    9.000e-01  
  4.0000e-09    4.495e-01    4.495e-01    0.000e+00    9.000e-01  
  4.1000e-09    4.495e-01    4.495e-01    0.000e+00    9.000e-01  
  4.2000e-09    4.495e-01    4.495e-01    0.000e+00    9.000e-01  
  4.3000e-09    4.495e-01    4.495e-01    0.000e+00    9.000e-01  
  4.4000e-09    4.495e-01    4.495e-01    0.000e+00    9.000e-01  
  4.5000e-09    4.495e-01    4.495e-01    0.000e+00    9.000e-01  
  4.6000e-09    4.495e-01    4.495e-01    0.000e+00    9.000e-01  
  4.7000e-09    4.495e-01    4.495e-01    0.000e+00    9.000e-01  
  4.8000e-09    4.495e-01    4.495e-01    0.000e+00    9.000e-01  
  4.9000e-09    4.495e-01    4.495e-01    0.000e+00    9.000e-01  
  5.0000e-09    4.495e-01    4.495e-01    0.000e+00    9.000e-01  
  5.1000e-09    4.509e-01    4.494e-01    0.000e+00    9.000e-01  
  5.2000e-09    4.495e-01    4.495e-01    0.000e+00    9.000e-01  
  5.3000e-09    4.495e-01    4.495e-01    0.000e+00    9.000e-01  
  5.4000e-09    4.495e-01    4.495e-01    0.000e+00    9.000e-01  
  5.5000e-09    4.495e-01    4.495e-01    0.000e+00    9.000e-01  
  5.6000e-09    4.495e-01    4.495e-01    0.000e+00    9.000e-01  
  5.7000e-09    4.495e-01    4.495e-01    0.000e+00    9.000e-01  
  5.8000e-09    4.495e-01    4.495e-01    0.000e+00    9.000e-01  
  5.9000e-09    4.495e-01    4.495e-01    0.000e+00    9.000e-01  
  6.0000e-09    4.495e-01    4.495e-01    0.000e+00    9.000e-01  
  6.1000e-09    4.495e-01    4.495e-01    0.000e+00    9.000e-01  
  6.2000e-09    4.495e-01    4.495e-01    0.000e+00    9.000e-01  
  6.3000e-09    4.495e-01    4.495e-01    0.000e+00    9.000e-01  
  6.4000e-09    4.495e-01    4.495e-01    0.000e+00    9.000e-01  
  6.5000e-09    4.495e-01    4.495e-01    0.000e+00    9.000e-01  
  6.6000e-09    4.495e-01    4.495e-01    0.000e+00    9.000e-01  
  6.7000e-09    4.495e-01    4.495e-01    0.000e+00    9.000e-01  
  6.8000e-09    4.495e-01    4.495e-01    0.000e+00    9.000e-01  
  6.9000e-09    4.495e-01    4.495e-01    0.000e+00    9.000e-01  
  7.0000e-09    4.495e-01    4.495e-01    0.000e+00    9.000e-01  
  7.1000e-09    4.495e-01    4.495e-01    0.000e+00    9.000e-01  
  7.2000e-09    4.495e-01    4.495e-01    0.000e+00    9.000e-01  
  7.3000e-09    4.495e-01    4.495e-01    0.000e+00    9.000e-01  
  7.4000e-09    4.495e-01    4.495e-01    0.000e+00    9.000e-01  
  7.5000e-09    4.495e-01    4.495e-01    0.000e+00    9.000e-01  
  7.6000e-09    4.532e-01    4.490e-01    0.000e+00    9.000e-01  
  7.7000e-09    4.499e-01    4.495e-01    0.000e+00    9.000e-01  
  7.8000e-09    4.499e-01    4.495e-01    0.000e+00    9.000e-01  
  7.9000e-09    4.499e-01    4.495e-01    0.000e+00    9.000e-01  
  8.0000e-09    4.499e-01    4.495e-01    0.000e+00    9.000e-01  
  8.1000e-09    4.499e-01    4.495e-01    0.000e+00    9.000e-01  
  8.2000e-09    4.499e-01    4.495e-01    0.000e+00    9.000e-01  
  8.3000e-09    4.499e-01    4.495e-01    0.000e+00    9.000e-01  
  8.4000e-09    4.499e-01    4.495e-01    0.000e+00    9.000e-01  
  8.5000e-09    4.499e-01    4.495e-01    0.000e+00    9.000e-01  
  8.6000e-09    4.499e-01    4.495e-01    0.000e+00    9.000e-01  
  8.7000e-09    4.499e-01    4.495e-01    0.000e+00    9.000e-01  
  8.8000e-09    4.499e-01    4.495e-01    0.000e+00    9.000e-01  
  8.9000e-09    4.499e-01    4.495e-01    0.000e+00    9.000e-01  
  9.0000e-09    4.499e-01    4.495e-01    0.000e+00    9.000e-01  
  9.1000e-09    4.499e-01    4.495e-01    0.000e+00    9.000e-01  
  9.2000e-09    4.499e-01    4.495e-01    0.000e+00    9.000e-01  
  9.3000e-09    4.499e-01    4.495e-01    0.000e+00    9.000e-01  
  9.4000e-09    4.499e-01    4.495e-01    0.000e+00    9.000e-01  
  9.5000e-09    4.499e-01    4.495e-01    0.000e+00    9.000e-01  
  9.6000e-09    4.499e-01    4.495e-01    0.000e+00    9.000e-01  
  9.7000e-09    4.499e-01    4.495e-01    0.000e+00    9.000e-01  
  9.8000e-09    4.499e-01    4.495e-01    0.000e+00    9.000e-01  
  9.9000e-09    4.499e-01    4.495e-01    0.000e+00    9.000e-01  
  1.0000e-08    4.499e-01    4.495e-01    0.000e+00    9.000e-01  
  1.0100e-08    4.420e-01    4.499e-01    0.000e+00    9.000e-01  
  1.0200e-08    4.495e-01    4.495e-01    0.000e+00    9.000e-01  
  1.0300e-08    4.496e-01    4.495e-01    0.000e+00    9.000e-01  
  1.0400e-08    4.495e-01    4.495e-01    0.000e+00    9.000e-01  
  1.0500e-08    4.495e-01    4.495e-01    0.000e+00    9.000e-01  
  1.0600e-08    4.495e-01    4.495e-01    0.000e+00    9.000e-01  
  1.0700e-08    4.495e-01    4.495e-01    0.000e+00    9.000e-01  
  1.0800e-08    4.495e-01    4.495e-01    0.000e+00    9.000e-01  
  1.0900e-08    4.495e-01    4.495e-01    0.000e+00    9.000e-01  
  1.1000e-08    4.496e-01    4.496e-01    0.000e+00    9.000e-01  
  1.1100e-08    4.496e-01    4.496e-01    0.000e+00    9.000e-01  
  1.1200e-08    4.496e-01    4.496e-01    0.000e+00    9.000e-01  
  1.1300e-08    4.496e-01    4.495e-01    0.000e+00    9.000e-01  
  1.1400e-08    4.495e-01    4.495e-01    0.000e+00    9.000e-01  
  1.1500e-08    4.495e-01    4.495e-01    0.000e+00    9.000e-01  
  1.1600e-08    4.495e-01    4.495e-01    0.000e+00    9.000e-01  
  1.1700e-08    4.495e-01    4.495e-01    0.000e+00    9.000e-01  
  1.1800e-08    4.495e-01    4.495e-01    0.000e+00    9.000e-01  
  1.1900e-08    4.495e-01    4.495e-01    0.000e+00    9.000e-01  
  1.2000e-08    4.495e-01    4.495e-01    0.000e+00    9.000e-01  
  1.2100e-08    4.495e-01    4.495e-01    0.000e+00    9.000e-01  
  1.2200e-08    4.495e-01    4.495e-01    0.000e+00    9.000e-01  
  1.2300e-08    4.495e-01    4.495e-01    0.000e+00    9.000e-01  
  1.2400e-08    4.495e-01    4.495e-01    0.000e+00    9.000e-01  
  1.2500e-08    4.495e-01    4.495e-01    0.000e+00    9.000e-01  
  1.2600e-08    4.611e-01    4.509e-01    9.000e-01    0.000e+00  
  1.2700e-08    4.497e-01    4.494e-01    9.000e-01    0.000e+00  
  1.2800e-08    4.495e-01    4.495e-01    9.000e-01    0.000e+00  
  1.2900e-08    4.495e-01    4.495e-01    9.000e-01    0.000e+00  
  1.3000e-08    4.495e-01    4.495e-01    9.000e-01    0.000e+00  
  1.3100e-08    4.495e-01    4.496e-01    9.000e-01    0.000e+00  
  1.3200e-08    4.495e-01    4.495e-01    9.000e-01    0.000e+00  
  1.3300e-08    4.495e-01    4.495e-01    9.000e-01    0.000e+00  
  1.3400e-08    4.495e-01    4.495e-01    9.000e-01    0.000e+00  
  1.3500e-08    4.495e-01    4.495e-01    9.000e-01    0.000e+00  
  1.3600e-08    4.495e-01    4.495e-01    9.000e-01    0.000e+00  
  1.3700e-08    4.495e-01    4.495e-01    9.000e-01    0.000e+00  
  1.3800e-08    4.495e-01    4.495e-01    9.000e-01    0.000e+00  
  1.3900e-08    4.495e-01    4.495e-01    9.000e-01    0.000e+00  
  1.4000e-08    4.495e-01    4.495e-01    9.000e-01    0.000e+00  
  1.4100e-08    4.495e-01    4.495e-01    9.000e-01    0.000e+00  
  1.4200e-08    4.495e-01    4.495e-01    9.000e-01    0.000e+00  
  1.4300e-08    4.495e-01    4.495e-01    9.000e-01    0.000e+00  
  1.4400e-08    4.495e-01    4.495e-01    9.000e-01    0.000e+00  
  1.4500e-08    4.495e-01    4.495e-01    9.000e-01    0.000e+00  
  1.4600e-08    4.495e-01    4.495e-01    9.000e-01    0.000e+00  
  1.4700e-08    4.495e-01    4.496e-01    9.000e-01    0.000e+00  
  1.4800e-08    4.495e-01    4.496e-01    9.000e-01    0.000e+00  
  1.4900e-08    4.495e-01    4.495e-01    9.000e-01    0.000e+00  
  1.5000e-08    4.495e-01    4.495e-01    9.000e-01    0.000e+00  
  1.5100e-08    4.564e-01    4.494e-01    0.000e+00    9.000e-01  
  1.5200e-08    4.494e-01    4.495e-01    0.000e+00    9.000e-01  
  1.5300e-08    4.495e-01    4.495e-01    0.000e+00    9.000e-01  
  1.5400e-08    4.495e-01    4.495e-01    0.000e+00    9.000e-01  
  1.5500e-08    4.495e-01    4.495e-01    0.000e+00    9.000e-01  
  1.5600e-08    4.495e-01    4.495e-01    0.000e+00    9.000e-01  
  1.5700e-08    4.496e-01    4.495e-01    0.000e+00    9.000e-01  
  1.5800e-08    4.496e-01    4.495e-01    0.000e+00    9.000e-01  
  1.5900e-08    4.495e-01    4.495e-01    0.000e+00    9.000e-01  
  1.6000e-08    4.495e-01    4.495e-01    0.000e+00    9.000e-01  
  1.6100e-08    4.495e-01    4.495e-01    0.000e+00    9.000e-01  
  1.6200e-08    4.495e-01    4.495e-01    0.000e+00    9.000e-01  
  1.6300e-08    4.495e-01    4.495e-01    0.000e+00    9.000e-01  
  1.6400e-08    4.495e-01    4.495e-01    0.000e+00    9.000e-01  
  1.6500e-08    4.495e-01    4.495e-01    0.000e+00    9.000e-01  
  1.6600e-08    4.495e-01    4.495e-01    0.000e+00    9.000e-01  
  1.6700e-08    4.495e-01    4.495e-01    0.000e+00    9.000e-01  
  1.6800e-08    4.495e-01    4.495e-01    0.000e+00    9.000e-01  
  1.6900e-08    4.495e-01    4.495e-01    0.000e+00    9.000e-01  
  1.7000e-08    4.495e-01    4.495e-01    0.000e+00    9.000e-01  
  1.7100e-08    4.495e-01    4.495e-01    0.000e+00    9.000e-01  
  1.7200e-08    4.495e-01    4.495e-01    0.000e+00    9.000e-01  
  1.7300e-08    4.495e-01    4.495e-01    0.000e+00    9.000e-01  
  1.7400e-08    4.495e-01    4.495e-01    0.000e+00    9.000e-01  
  1.7500e-08    4.496e-01    4.495e-01    0.000e+00    9.000e-01  
  1.7600e-08    8.469e-01    1.412e-01    0.000e+00    9.000e-01  
  1.7700e-08    8.999e-01    2.402e-04    0.000e+00    9.000e-01  
  1.7800e-08    8.999e-01    1.286e-04    0.000e+00    9.000e-01  
  1.7900e-08    9.000e-01    5.832e-05    0.000e+00    9.000e-01  
  1.8000e-08    9.000e-01    6.282e-05    0.000e+00    9.000e-01  
  1.8100e-08    9.000e-01    7.154e-05    0.000e+00    9.000e-01  
  1.8200e-08    9.000e-01    5.245e-05    0.000e+00    9.000e-01  
  1.8300e-08    9.000e-01    3.336e-05    0.000e+00    9.000e-01  
  1.8400e-08    9.000e-01    1.728e-05    0.000e+00    9.000e-01  
  1.8500e-08    9.000e-01    2.471e-05    0.000e+00    9.000e-01  
  1.8600e-08    9.000e-01    3.214e-05    0.000e+00    9.000e-01  
  1.8700e-08    9.000e-01    3.957e-05    0.000e+00    9.000e-01  
  1.8800e-08    9.000e-01    4.700e-05    0.000e+00    9.000e-01  
  1.8900e-08    9.000e-01    5.184e-05    0.000e+00    9.000e-01  
  1.9000e-08    9.000e-01    4.577e-05    0.000e+00    9.000e-01  
  1.9100e-08    9.000e-01    3.969e-05    0.000e+00    9.000e-01  
  1.9200e-08    9.000e-01    3.362e-05    0.000e+00    9.000e-01  
  1.9300e-08    9.000e-01    2.755e-05    0.000e+00    9.000e-01  
  1.9400e-08    9.000e-01    2.148e-05    0.000e+00    9.000e-01  
  1.9500e-08    9.000e-01    1.541e-05    0.000e+00    9.000e-01  
  1.9600e-08    9.000e-01    9.334e-06    0.000e+00    9.000e-01  
  1.9700e-08    9.000e-01    9.163e-06    0.000e+00    9.000e-01  
  1.9800e-08    9.000e-01    2.244e-05    0.000e+00    9.000e-01  
  1.9900e-08    9.000e-01    3.571e-05    0.000e+00    9.000e-01  
  2.0000e-08    9.000e-01    4.898e-05    0.000e+00    9.000e-01  
  2.0100e-08    8.953e-01    1.073e-03    0.000e+00    9.000e-01  
  2.0200e-08    8.999e-01    2.409e-06    0.000e+00    9.000e-01  
  2.0300e-08    8.998e-01    3.475e-05    0.000e+00    9.000e-01  
  2.0400e-08    8.999e-01    1.092e-05    0.000e+00    9.000e-01  
  2.0500e-08    8.999e-01    2.188e-05    0.000e+00    9.000e-01  
  2.0600e-08    8.999e-01    3.283e-05    0.000e+00    9.000e-01  
  2.0700e-08    8.998e-01    3.926e-05    0.000e+00    9.000e-01  
  2.0800e-08    8.998e-01    3.594e-05    0.000e+00    9.000e-01  
  2.0900e-08    8.999e-01    3.262e-05    0.000e+00    9.000e-01  
  2.1000e-08    8.999e-01    2.930e-05    0.000e+00    9.000e-01  
  2.1100e-08    8.999e-01    2.598e-05    0.000e+00    9.000e-01  
  2.1200e-08    8.999e-01    2.266e-05    0.000e+00    9.000e-01  
  2.1300e-08    8.999e-01    1.934e-05    0.000e+00    9.000e-01  
  2.1400e-08    8.999e-01    1.602e-05    0.000e+00    9.000e-01  
  2.1500e-08    8.999e-01    1.270e-05    0.000e+00    9.000e-01  
  2.1600e-08    8.999e-01    1.424e-05    0.000e+00    9.000e-01  
  2.1700e-08    8.999e-01    1.685e-05    0.000e+00    9.000e-01  
  2.1800e-08    8.999e-01    1.947e-05    0.000e+00    9.000e-01  
  2.1900e-08    8.999e-01    2.208e-05    0.000e+00    9.000e-01  
  2.2000e-08    8.999e-01    2.469e-05    0.000e+00    9.000e-01  
  2.2100e-08    8.999e-01    2.731e-05    0.000e+00    9.000e-01  
  2.2200e-08    8.999e-01    2.992e-05    0.000e+00    9.000e-01  
  2.2300e-08    8.999e-01    3.253e-05    0.000e+00    9.000e-01  
  2.2400e-08    8.998e-01    3.514e-05    0.000e+00    9.000e-01  
  2.2500e-08    8.998e-01    3.776e-05    0.000e+00    9.000e-01  
  2.2600e-08    8.852e-01   -7.047e-05    9.000e-01    0.000e+00  
  2.2700e-08    9.000e-01   -2.810e-05    9.000e-01    0.000e+00  
  2.2800e-08    8.999e-01    3.570e-06    9.000e-01    0.000e+00  
  2.2900e-08    8.999e-01    2.392e-05    9.000e-01    0.000e+00  
  2.3000e-08    8.999e-01    4.642e-05    9.000e-01    0.000e+00  
  2.3100e-08    8.999e-01    3.348e-05    9.000e-01    0.000e+00  
  2.3200e-08    8.999e-01    2.053e-05    9.000e-01    0.000e+00  
  2.3300e-08    8.999e-01    7.579e-06    9.000e-01    0.000e+00  
  2.3400e-08    8.999e-01    7.335e-06    9.000e-01    0.000e+00  
  2.3500e-08    8.999e-01    1.255e-05    9.000e-01    0.000e+00  
  2.3600e-08    8.999e-01    1.777e-05    9.000e-01    0.000e+00  
  2.3700e-08    8.999e-01    2.299e-05    9.000e-01    0.000e+00  
  2.3800e-08    8.999e-01    2.821e-05    9.000e-01    0.000e+00  
  2.3900e-08    8.999e-01    3.343e-05    9.000e-01    0.000e+00  
  2.4000e-08    8.999e-01    3.865e-05    9.000e-01    0.000e+00  
  2.4100e-08    8.999e-01    4.387e-05    9.000e-01    0.000e+00  
  2.4200e-08    8.999e-01    4.246e-05    9.000e-01    0.000e+00  
  2.4300e-08    8.999e-01    3.785e-05    9.000e-01    0.000e+00  
  2.4400e-08    8.999e-01    3.324e-05    9.000e-01    0.000e+00  
  2.4500e-08    8.999e-01    2.863e-05    9.000e-01    0.000e+00  
  2.4600e-08    8.999e-01    2.402e-05    9.000e-01    0.000e+00  
  2.4700e-08    8.999e-01    1.941e-05    9.000e-01    0.000e+00  
  2.4800e-08    8.999e-01    1.481e-05    9.000e-01    0.000e+00  
  2.4900e-08    8.999e-01    1.020e-05    9.000e-01    0.000e+00  
  2.5000e-08    8.999e-01    5.586e-06    9.000e-01    0.000e+00  
  2.5100e-08    9.041e-01   -1.030e-03    0.000e+00    9.000e-01  
  2.5200e-08    8.998e-01    7.378e-05    0.000e+00    9.000e-01  
  2.5300e-08    8.999e-01   -8.391e-07    0.000e+00    9.000e-01  
  2.5400e-08    8.998e-01    4.018e-05    0.000e+00    9.000e-01  
  2.5500e-08    8.998e-01    4.313e-05    0.000e+00    9.000e-01  
  2.5600e-08    8.999e-01    2.936e-05    0.000e+00    9.000e-01  
  2.5700e-08    8.999e-01    1.559e-05    0.000e+00    9.000e-01  
  2.5800e-08    8.999e-01    1.821e-06    0.000e+00    9.000e-01  
  2.5900e-08    8.999e-01    4.913e-06    0.000e+00    9.000e-01  
  2.6000e-08    8.999e-01    9.749e-06    0.000e+00    9.000e-01  
  2.6100e-08    8.999e-01    1.459e-05    0.000e+00    9.000e-01  
  2.6200e-08    8.999e-01    1.942e-05    0.000e+00    9.000e-01  
  2.6300e-08    8.999e-01    2.426e-05    0.000e+00    9.000e-01  
  2.6400e-08    8.999e-01    2.909e-05    0.000e+00    9.000e-01  
  2.6500e-08    8.999e-01    3.393e-05    0.000e+00    9.000e-01  
  2.6600e-08    8.998e-01    3.877e-05    0.000e+00    9.000e-01  
  2.6700e-08    8.998e-01    4.360e-05    0.000e+00    9.000e-01  
  2.6800e-08    8.998e-01    4.806e-05    0.000e+00    9.000e-01  
  2.6900e-08    8.998e-01    4.166e-05    0.000e+00    9.000e-01  
  2.7000e-08    8.999e-01    3.526e-05    0.000e+00    9.000e-01  
  2.7100e-08    8.999e-01    2.886e-05    0.000e+00    9.000e-01  
  2.7200e-08    8.999e-01    2.246e-05    0.000e+00    9.000e-01  
  2.7300e-08    8.999e-01    1.606e-05    0.000e+00    9.000e-01  
  2.7400e-08    8.999e-01    9.658e-06    0.000e+00    9.000e-01  
  2.7500e-08    8.999e-01    3.258e-06    0.000e+00    9.000e-01  
  2.7600e-08    4.047e-01   -1.989e-01    0.000e+00    9.000e-01  
  2.7700e-08    2.946e-02    6.637e-01    0.000e+00    9.000e-01  
  2.7800e-08   -6.587e-06    8.996e-01    0.000e+00    9.000e-01  
  2.7900e-08    2.900e-05    8.999e-01    0.000e+00    9.000e-01  
  2.8000e-08   -1.094e-04    8.997e-01    0.000e+00    9.000e-01  
  2.8100e-08    5.496e-07    8.999e-01    0.000e+00    9.000e-01  
  2.8200e-08    5.272e-05    9.000e-01    0.000e+00    9.000e-01  
  2.8300e-08    7.414e-05    9.001e-01    0.000e+00    9.000e-01  
  2.8400e-08   -1.882e-04    8.996e-01    0.000e+00    9.000e-01  
  2.8500e-08    1.459e-04    9.002e-01    0.000e+00    9.000e-01  
  2.8600e-08    1.311e-04    9.002e-01    0.000e+00    9.000e-01  
  2.8700e-08   -1.403e-04    8.997e-01    0.000e+00    9.000e-01  
  2.8800e-08   -1.334e-04    8.997e-01    0.000e+00    9.000e-01  
  2.8900e-08    8.504e-05    9.001e-01    0.000e+00    9.000e-01  
  2.9000e-08    2.665e-04    9.004e-01    0.000e+00    9.000e-01  
  2.9100e-08    8.924e-05    9.001e-01    0.000e+00    9.000e-01  
  2.9200e-08   -8.806e-05    8.998e-01    0.000e+00    9.000e-01  
  2.9300e-08   -2.516e-04    8.995e-01    0.000e+00    9.000e-01  
  2.9400e-08   -1.085e-04    8.998e-01    0.000e+00    9.000e-01  
  2.9500e-08    3.457e-05    9.000e-01    0.000e+00    9.000e-01  
  2.9600e-08    1.777e-04    9.003e-01    0.000e+00    9.000e-01  
  2.9700e-08    2.340e-04    9.004e-01    0.000e+00    9.000e-01  
  2.9800e-08    7.016e-05    9.001e-01    0.000e+00    9.000e-01  
  2.9900e-08   -9.367e-05    8.998e-01    0.000e+00    9.000e-01  
  3.0000e-08   -2.575e-04    8.995e-01    0.000e+00    9.000e-01  
  3.0100e-08   -6.140e-03    9.004e-01    0.000e+00    9.000e-01  
  3.0200e-08    5.866e-05    8.999e-01    0.000e+00    9.000e-01  
  3.0300e-08    2.549e-05    9.000e-01    0.000e+00    9.000e-01  
  3.0400e-08    3.378e-05    9.000e-01    0.000e+00    9.000e-01  
  3.0500e-08    3.313e-05    9.000e-01    0.000e+00    9.000e-01  
  3.0600e-08    3.144e-05    9.000e-01    0.000e+00    9.000e-01  
  3.0700e-08    2.975e-05    9.000e-01    0.000e+00    9.000e-01  
  3.0800e-08    2.813e-05    9.000e-01    0.000e+00    9.000e-01  
  3.0900e-08    2.841e-05    9.000e-01    0.000e+00    9.000e-01  
  3.1000e-08    2.869e-05    9.000e-01    0.000e+00    9.000e-01  
  3.1100e-08    2.896e-05    9.000e-01    0.000e+00    9.000e-01  
  3.1200e-08    2.924e-05    9.000e-01    0.000e+00    9.000e-01  
  3.1300e-08    2.952e-05    9.000e-01    0.000e+00    9.000e-01  
  3.1400e-08    2.980e-05    9.000e-01    0.000e+00    9.000e-01  
  3.1500e-08    3.007e-05    9.000e-01    0.000e+00    9.000e-01  
  3.1600e-08    3.035e-05    9.000e-01    0.000e+00    9.000e-01  
  3.1700e-08    3.063e-05    9.000e-01    0.000e+00    9.000e-01  
  3.1800e-08    3.069e-05    9.000e-01    0.000e+00    9.000e-01  
  3.1900e-08    3.024e-05    9.000e-01    0.000e+00    9.000e-01  
  3.2000e-08    2.979e-05    9.000e-01    0.000e+00    9.000e-01  
  3.2100e-08    2.935e-05    9.000e-01    0.000e+00    9.000e-01  
  3.2200e-08    2.890e-05    9.000e-01    0.000e+00    9.000e-01  
  3.2300e-08    2.846e-05    9.000e-01    0.000e+00    9.000e-01  
  3.2400e-08    2.801e-05    9.000e-01    0.000e+00    9.000e-01  
  3.2500e-08    2.756e-05    9.000e-01    0.000e+00    9.000e-01  
  3.2600e-08    3.697e-02    8.974e-01    9.000e-01    0.000e+00  
  3.2700e-08    2.088e-05    9.000e-01    9.000e-01    0.000e+00  
  3.2800e-08    3.580e-05    9.000e-01    9.000e-01    0.000e+00  
  3.2900e-08    2.893e-05    9.000e-01    9.000e-01    0.000e+00  
  3.3000e-08    1.311e-05    9.000e-01    9.000e-01    0.000e+00  
  3.3100e-08    1.359e-05    9.000e-01    9.000e-01    0.000e+00  
  3.3200e-08    1.925e-05    9.000e-01    9.000e-01    0.000e+00  
  3.3300e-08    2.490e-05    9.000e-01    9.000e-01    0.000e+00  
  3.3400e-08    3.056e-05    9.000e-01    9.000e-01    0.000e+00  
  3.3500e-08    3.621e-05    9.000e-01    9.000e-01    0.000e+00  
  3.3600e-08    4.018e-05    9.000e-01    9.000e-01    0.000e+00  
  3.3700e-08    3.760e-05    9.000e-01    9.000e-01    0.000e+00  
  3.3800e-08    3.502e-05    9.000e-01    9.000e-01    0.000e+00  
  3.3900e-08    3.243e-05    9.000e-01    9.000e-01    0.000e+00  
  3.4000e-08    2.985e-05    9.000e-01    9.000e-01    0.000e+00  
  3.4100e-08    2.727e-05    9.000e-01    9.000e-01    0.000e+00  
  3.4200e-08    2.469e-05    9.000e-01    9.000e-01    0.000e+00  
  3.4300e-08    2.211e-05    9.000e-01    9.000e-01    0.000e+00  
  3.4400e-08    1.953e-05    9.000e-01    9.000e-01    0.000e+00  
  3.4500e-08    1.695e-05    9.000e-01    9.000e-01    0.000e+00  
  3.4600e-08    1.437e-05    9.000e-01    9.000e-01    0.000e+00  
  3.4700e-08    1.179e-05    9.000e-01    9.000e-01    0.000e+00  
  3.4800e-08    1.230e-05    9.000e-01    9.000e-01    0.000e+00  
  3.4900e-08    2.590e-05    9.000e-01    9.000e-01    0.000e+00  
  3.5000e-08    3.949e-05    9.000e-01    9.000e-01    0.000e+00  
  3.5100e-08    3.541e-05    9.000e-01    9.000e-01    0.000e+00  
  3.5200e-08    3.132e-05    9.000e-01    9.000e-01    0.000e+00  
  3.5300e-08    2.724e-05    9.000e-01    9.000e-01    0.000e+00  
  3.5400e-08    2.516e-05    9.000e-01    9.000e-01    0.000e+00  
  3.5500e-08    2.514e-05    9.000e-01    9.000e-01    0.000e+00  
  3.5600e-08    2.511e-05    9.000e-01    9.000e-01    0.000e+00  
  3.5700e-08    2.509e-05    9.000e-01    9.000e-01    0.000e+00  
  3.5800e-08    2.506e-05    9.000e-01    9.000e-01    0.000e+00  
  3.5900e-08    2.504e-05    9.000e-01    9.000e-01    0.000e+00  
  3.6000e-08    2.501e-05    9.000e-01    9.000e-01    0.000e+00  
  3.6100e-08    2.499e-05    9.000e-01    9.000e-01    0.000e+00  
  3.6200e-08    2.496e-05    9.000e-01    9.000e-01    0.000e+00  
  3.6300e-08    2.494e-05    9.000e-01    9.000e-01    0.000e+00  
  3.6400e-08    2.492e-05    9.000e-01    9.000e-01    0.000e+00  
  3.6500e-08    2.490e-05    9.000e-01    9.000e-01    0.000e+00  
  3.6600e-08    2.491e-05    9.000e-01    9.000e-01    0.000e+00  
  3.6700e-08    2.493e-05    9.000e-01    9.000e-01    0.000e+00  
  3.6800e-08    2.494e-05    9.000e-01    9.000e-01    0.000e+00  
  3.6900e-08    2.495e-05    9.000e-01    9.000e-01    0.000e+00  
  3.7000e-08    2.496e-05    9.000e-01    9.000e-01    0.000e+00  
  3.7100e-08    2.497e-05    9.000e-01    9.000e-01    0.000e+00  
  3.7200e-08    2.499e-05    9.000e-01    9.000e-01    0.000e+00  
  3.7300e-08    2.500e-05    9.000e-01    9.000e-01    0.000e+00  
  3.7400e-08    2.501e-05    9.000e-01    9.000e-01    0.000e+00  
  3.7500e-08    2.502e-05    9.000e-01    9.000e-01    0.000e+00  
  3.7600e-08    2.503e-05    9.000e-01    9.000e-01    0.000e+00  
  3.7700e-08    2.505e-05    9.000e-01    9.000e-01    0.000e+00  
  3.7800e-08    2.506e-05    9.000e-01    9.000e-01    0.000e+00  
  3.7900e-08    2.507e-05    9.000e-01    9.000e-01    0.000e+00  
  3.8000e-08    2.508e-05    9.000e-01    9.000e-01    0.000e+00  
  3.8100e-08    2.509e-05    9.000e-01    9.000e-01    0.000e+00  
  3.8200e-08    2.511e-05    9.000e-01    9.000e-01    0.000e+00  
  3.8300e-08    2.512e-05    9.000e-01    9.000e-01    0.000e+00  
  3.8400e-08    2.513e-05    9.000e-01    9.000e-01    0.000e+00  
  3.8500e-08    2.513e-05    9.000e-01    9.000e-01    0.000e+00  
  3.8600e-08    2.512e-05    9.000e-01    9.000e-01    0.000e+00  
  3.8700e-08    2.510e-05    9.000e-01    9.000e-01    0.000e+00  
  3.8800e-08    2.509e-05    9.000e-01    9.000e-01    0.000e+00  
  3.8900e-08    2.507e-05    9.000e-01    9.000e-01    0.000e+00  
  3.9000e-08    2.505e-05    9.000e-01    9.000e-01    0.000e+00  
  3.9100e-08    2.504e-05    9.000e-01    9.000e-01    0.000e+00  
  3.9200e-08    2.502e-05    9.000e-01    9.000e-01    0.000e+00  
  3.9300e-08    2.500e-05    9.000e-01    9.000e-01    0.000e+00  
  3.9400e-08    2.499e-05    9.000e-01    9.000e-01    0.000e+00  
  3.9500e-08    2.497e-05    9.000e-01    9.000e-01    0.000e+00  
  3.9600e-08    2.496e-05    9.000e-01    9.000e-01    0.000e+00  
  3.9700e-08    2.494e-05    9.000e-01    9.000e-01    0.000e+00  
  3.9800e-08    2.492e-05    9.000e-01    9.000e-01    0.000e+00  
  3.9900e-08    2.491e-05    9.000e-01    9.000e-01    0.000e+00  
  4.0000e-08    2.489e-05    9.000e-01    9.000e-01    0.000e+00  
y
x

        time    voltage    
                    rbl    
  0.0000e+00    1.031e-01  
  1.0000e-10    1.031e-01  
  2.0000e-10    1.031e-01  
  3.0000e-10    1.031e-01  
  4.0000e-10    1.031e-01  
  5.0000e-10    1.031e-01  
  6.0000e-10    1.031e-01  
  7.0000e-10    1.031e-01  
  8.0000e-10    1.031e-01  
  9.0000e-10    1.031e-01  
  1.0000e-09    1.031e-01  
  1.1000e-09    1.031e-01  
  1.2000e-09    1.031e-01  
  1.3000e-09    1.031e-01  
  1.4000e-09    1.031e-01  
  1.5000e-09    1.031e-01  
  1.6000e-09    1.031e-01  
  1.7000e-09    1.031e-01  
  1.8000e-09    1.031e-01  
  1.9000e-09    1.031e-01  
  2.0000e-09    1.031e-01  
  2.1000e-09    1.031e-01  
  2.2000e-09    1.031e-01  
  2.3000e-09    1.031e-01  
  2.4000e-09    1.031e-01  
  2.5000e-09    1.031e-01  
  2.6000e-09    1.031e-01  
  2.7000e-09    1.031e-01  
  2.8000e-09    1.031e-01  
  2.9000e-09    1.031e-01  
  3.0000e-09    1.031e-01  
  3.1000e-09    1.031e-01  
  3.2000e-09    1.031e-01  
  3.3000e-09    1.031e-01  
  3.4000e-09    1.031e-01  
  3.5000e-09    1.031e-01  
  3.6000e-09    1.031e-01  
  3.7000e-09    1.031e-01  
  3.8000e-09    1.031e-01  
  3.9000e-09    1.031e-01  
  4.0000e-09    1.031e-01  
  4.1000e-09    1.031e-01  
  4.2000e-09    1.031e-01  
  4.3000e-09    1.031e-01  
  4.4000e-09    1.031e-01  
  4.5000e-09    1.031e-01  
  4.6000e-09    1.031e-01  
  4.7000e-09    1.031e-01  
  4.8000e-09    1.031e-01  
  4.9000e-09    1.031e-01  
  5.0000e-09    1.031e-01  
  5.1000e-09    1.035e-01  
  5.2000e-09    1.031e-01  
  5.3000e-09    1.031e-01  
  5.4000e-09    1.031e-01  
  5.5000e-09    1.031e-01  
  5.6000e-09    1.031e-01  
  5.7000e-09    1.031e-01  
  5.8000e-09    1.031e-01  
  5.9000e-09    1.031e-01  
  6.0000e-09    1.031e-01  
  6.1000e-09    1.031e-01  
  6.2000e-09    1.031e-01  
  6.3000e-09    1.031e-01  
  6.4000e-09    1.031e-01  
  6.5000e-09    1.031e-01  
  6.6000e-09    1.031e-01  
  6.7000e-09    1.031e-01  
  6.8000e-09    1.031e-01  
  6.9000e-09    1.031e-01  
  7.0000e-09    1.031e-01  
  7.1000e-09    1.031e-01  
  7.2000e-09    1.031e-01  
  7.3000e-09    1.031e-01  
  7.4000e-09    1.031e-01  
  7.5000e-09    1.031e-01  
  7.6000e-09    1.043e-01  
  7.7000e-09    1.033e-01  
  7.8000e-09    1.032e-01  
  7.9000e-09    1.033e-01  
  8.0000e-09    1.033e-01  
  8.1000e-09    1.033e-01  
  8.2000e-09    1.032e-01  
  8.3000e-09    1.032e-01  
  8.4000e-09    1.032e-01  
  8.5000e-09    1.032e-01  
  8.6000e-09    1.032e-01  
  8.7000e-09    1.032e-01  
  8.8000e-09    1.032e-01  
  8.9000e-09    1.032e-01  
  9.0000e-09    1.032e-01  
  9.1000e-09    1.032e-01  
  9.2000e-09    1.032e-01  
  9.3000e-09    1.032e-01  
  9.4000e-09    1.032e-01  
  9.5000e-09    1.032e-01  
  9.6000e-09    1.032e-01  
  9.7000e-09    1.032e-01  
  9.8000e-09    1.033e-01  
  9.9000e-09    1.033e-01  
  1.0000e-08    1.033e-01  
  1.0100e-08    1.007e-01  
  1.0200e-08    1.031e-01  
  1.0300e-08    1.031e-01  
  1.0400e-08    1.031e-01  
  1.0500e-08    1.031e-01  
  1.0600e-08    1.031e-01  
  1.0700e-08    1.031e-01  
  1.0800e-08    1.031e-01  
  1.0900e-08    1.031e-01  
  1.1000e-08    1.031e-01  
  1.1100e-08    1.031e-01  
  1.1200e-08    1.031e-01  
  1.1300e-08    1.031e-01  
  1.1400e-08    1.031e-01  
  1.1500e-08    1.031e-01  
  1.1600e-08    1.031e-01  
  1.1700e-08    1.031e-01  
  1.1800e-08    1.031e-01  
  1.1900e-08    1.031e-01  
  1.2000e-08    1.031e-01  
  1.2100e-08    1.031e-01  
  1.2200e-08    1.031e-01  
  1.2300e-08    1.031e-01  
  1.2400e-08    1.031e-01  
  1.2500e-08    1.031e-01  
  1.2600e-08    4.641e-01  
  1.2700e-08    4.497e-01  
  1.2800e-08    4.495e-01  
  1.2900e-08    4.495e-01  
  1.3000e-08    4.495e-01  
  1.3100e-08    4.496e-01  
  1.3200e-08    4.495e-01  
  1.3300e-08    4.495e-01  
  1.3400e-08    4.495e-01  
  1.3500e-08    4.495e-01  
  1.3600e-08    4.495e-01  
  1.3700e-08    4.495e-01  
  1.3800e-08    4.495e-01  
  1.3900e-08    4.495e-01  
  1.4000e-08    4.495e-01  
  1.4100e-08    4.495e-01  
  1.4200e-08    4.495e-01  
  1.4300e-08    4.495e-01  
  1.4400e-08    4.495e-01  
  1.4500e-08    4.495e-01  
  1.4600e-08    4.495e-01  
  1.4700e-08    4.496e-01  
  1.4800e-08    4.496e-01  
  1.4900e-08    4.495e-01  
  1.5000e-08    4.495e-01  
  1.5100e-08    4.390e-02  
  1.5200e-08    4.182e-02  
  1.5300e-08    4.197e-02  
  1.5400e-08    4.207e-02  
  1.5500e-08    4.218e-02  
  1.5600e-08    4.230e-02  
  1.5700e-08    4.241e-02  
  1.5800e-08    4.251e-02  
  1.5900e-08    4.262e-02  
  1.6000e-08    4.272e-02  
  1.6100e-08    4.282e-02  
  1.6200e-08    4.292e-02  
  1.6300e-08    4.303e-02  
  1.6400e-08    4.313e-02  
  1.6500e-08    4.323e-02  
  1.6600e-08    4.333e-02  
  1.6700e-08    4.344e-02  
  1.6800e-08    4.354e-02  
  1.6900e-08    4.364e-02  
  1.7000e-08    4.375e-02  
  1.7100e-08    4.385e-02  
  1.7200e-08    4.395e-02  
  1.7300e-08    4.405e-02  
  1.7400e-08    4.416e-02  
  1.7500e-08    4.426e-02  
  1.7600e-08    1.696e-01  
  1.7700e-08    1.867e-01  
  1.7800e-08    1.871e-01  
  1.7900e-08    1.876e-01  
  1.8000e-08    1.880e-01  
  1.8100e-08    1.885e-01  
  1.8200e-08    1.889e-01  
  1.8300e-08    1.894e-01  
  1.8400e-08    1.899e-01  
  1.8500e-08    1.903e-01  
  1.8600e-08    1.908e-01  
  1.8700e-08    1.912e-01  
  1.8800e-08    1.917e-01  
  1.8900e-08    1.921e-01  
  1.9000e-08    1.926e-01  
  1.9100e-08    1.930e-01  
  1.9200e-08    1.935e-01  
  1.9300e-08    1.939e-01  
  1.9400e-08    1.944e-01  
  1.9500e-08    1.948e-01  
  1.9600e-08    1.953e-01  
  1.9700e-08    1.957e-01  
  1.9800e-08    1.962e-01  
  1.9900e-08    1.966e-01  
  2.0000e-08    1.971e-01  
  2.0100e-08    1.959e-01  
  2.0200e-08    1.977e-01  
  2.0300e-08    1.982e-01  
  2.0400e-08    1.986e-01  
  2.0500e-08    1.991e-01  
  2.0600e-08    1.995e-01  
  2.0700e-08    2.000e-01  
  2.0800e-08    2.004e-01  
  2.0900e-08    2.009e-01  
  2.1000e-08    2.013e-01  
  2.1100e-08    2.018e-01  
  2.1200e-08    2.022e-01  
  2.1300e-08    2.027e-01  
  2.1400e-08    2.031e-01  
  2.1500e-08    2.036e-01  
  2.1600e-08    2.040e-01  
  2.1700e-08    2.045e-01  
  2.1800e-08    2.049e-01  
  2.1900e-08    2.053e-01  
  2.2000e-08    2.058e-01  
  2.2100e-08    2.062e-01  
  2.2200e-08    2.067e-01  
  2.2300e-08    2.071e-01  
  2.2400e-08    2.076e-01  
  2.2500e-08    2.080e-01  
  2.2600e-08    8.780e-01  
  2.2700e-08    8.999e-01  
  2.2800e-08    9.000e-01  
  2.2900e-08    8.999e-01  
  2.3000e-08    8.997e-01  
  2.3100e-08    8.998e-01  
  2.3200e-08    8.999e-01  
  2.3300e-08    9.000e-01  
  2.3400e-08    9.000e-01  
  2.3500e-08    8.999e-01  
  2.3600e-08    8.999e-01  
  2.3700e-08    8.999e-01  
  2.3800e-08    8.998e-01  
  2.3900e-08    8.998e-01  
  2.4000e-08    8.998e-01  
  2.4100e-08    8.997e-01  
  2.4200e-08    8.997e-01  
  2.4300e-08    8.998e-01  
  2.4400e-08    8.998e-01  
  2.4500e-08    8.998e-01  
  2.4600e-08    8.999e-01  
  2.4700e-08    8.999e-01  
  2.4800e-08    8.999e-01  
  2.4900e-08    9.000e-01  
  2.5000e-08    9.000e-01  
  2.5100e-08    8.199e-01  
  2.5200e-08    8.188e-01  
  2.5300e-08    8.191e-01  
  2.5400e-08    8.194e-01  
  2.5500e-08    8.197e-01  
  2.5600e-08    8.200e-01  
  2.5700e-08    8.203e-01  
  2.5800e-08    8.206e-01  
  2.5900e-08    8.208e-01  
  2.6000e-08    8.211e-01  
  2.6100e-08    8.214e-01  
  2.6200e-08    8.217e-01  
  2.6300e-08    8.220e-01  
  2.6400e-08    8.222e-01  
  2.6500e-08    8.225e-01  
  2.6600e-08    8.228e-01  
  2.6700e-08    8.231e-01  
  2.6800e-08    8.234e-01  
  2.6900e-08    8.236e-01  
  2.7000e-08    8.239e-01  
  2.7100e-08    8.242e-01  
  2.7200e-08    8.245e-01  
  2.7300e-08    8.248e-01  
  2.7400e-08    8.250e-01  
  2.7500e-08    8.253e-01  
  2.7600e-08    6.695e-01  
  2.7700e-08    5.508e-01  
  2.7800e-08    5.398e-01  
  2.7900e-08    5.381e-01  
  2.8000e-08    5.363e-01  
  2.8100e-08    5.347e-01  
  2.8200e-08    5.330e-01  
  2.8300e-08    5.314e-01  
  2.8400e-08    5.298e-01  
  2.8500e-08    5.283e-01  
  2.8600e-08    5.268e-01  
  2.8700e-08    5.253e-01  
  2.8800e-08    5.238e-01  
  2.8900e-08    5.224e-01  
  2.9000e-08    5.211e-01  
  2.9100e-08    5.197e-01  
  2.9200e-08    5.183e-01  
  2.9300e-08    5.169e-01  
  2.9400e-08    5.157e-01  
  2.9500e-08    5.145e-01  
  2.9600e-08    5.132e-01  
  2.9700e-08    5.120e-01  
  2.9800e-08    5.108e-01  
  2.9900e-08    5.095e-01  
  3.0000e-08    5.083e-01  
  3.0100e-08    5.052e-01  
  3.0200e-08    5.060e-01  
  3.0300e-08    5.049e-01  
  3.0400e-08    5.038e-01  
  3.0500e-08    5.028e-01  
  3.0600e-08    5.017e-01  
  3.0700e-08    5.007e-01  
  3.0800e-08    4.996e-01  
  3.0900e-08    4.987e-01  
  3.1000e-08    4.977e-01  
  3.1100e-08    4.968e-01  
  3.1200e-08    4.958e-01  
  3.1300e-08    4.949e-01  
  3.1400e-08    4.939e-01  
  3.1500e-08    4.930e-01  
  3.1600e-08    4.920e-01  
  3.1700e-08    4.911e-01  
  3.1800e-08    4.902e-01  
  3.1900e-08    4.893e-01  
  3.2000e-08    4.885e-01  
  3.2100e-08    4.876e-01  
  3.2200e-08    4.868e-01  
  3.2300e-08    4.859e-01  
  3.2400e-08    4.851e-01  
  3.2500e-08    4.842e-01  
  3.2600e-08    4.562e-02  
  3.2700e-08    2.700e-05  
  3.2800e-08    5.567e-05  
  3.2900e-08    3.462e-05  
  3.3000e-08   -1.011e-05  
  3.3100e-08   -8.339e-06  
  3.3200e-08    8.164e-06  
  3.3300e-08    2.467e-05  
  3.3400e-08    4.117e-05  
  3.3500e-08    5.767e-05  
  3.3600e-08    6.924e-05  
  3.3700e-08    6.165e-05  
  3.3800e-08    5.406e-05  
  3.3900e-08    4.648e-05  
  3.4000e-08    3.889e-05  
  3.4100e-08    3.131e-05  
  3.4200e-08    2.372e-05  
  3.4300e-08    1.614e-05  
  3.4400e-08    8.550e-06  
  3.4500e-08    9.647e-07  
  3.4600e-08   -6.621e-06  
  3.4700e-08   -1.421e-05  
  3.4800e-08   -1.253e-05  
  3.4900e-08    2.840e-05  
  3.5000e-08    6.934e-05  
  3.5100e-08    5.675e-05  
  3.5200e-08    4.416e-05  
  3.5300e-08    3.157e-05  
  3.5400e-08    2.519e-05  
  3.5500e-08    2.516e-05  
  3.5600e-08    2.513e-05  
  3.5700e-08    2.510e-05  
  3.5800e-08    2.507e-05  
  3.5900e-08    2.504e-05  
  3.6000e-08    2.501e-05  
  3.6100e-08    2.498e-05  
  3.6200e-08    2.495e-05  
  3.6300e-08    2.492e-05  
  3.6400e-08    2.489e-05  
  3.6500e-08    2.487e-05  
  3.6600e-08    2.489e-05  
  3.6700e-08    2.490e-05  
  3.6800e-08    2.492e-05  
  3.6900e-08    2.493e-05  
  3.7000e-08    2.495e-05  
  3.7100e-08    2.496e-05  
  3.7200e-08    2.498e-05  
  3.7300e-08    2.499e-05  
  3.7400e-08    2.501e-05  
  3.7500e-08    2.502e-05  
  3.7600e-08    2.504e-05  
  3.7700e-08    2.505e-05  
  3.7800e-08    2.507e-05  
  3.7900e-08    2.508e-05  
  3.8000e-08    2.510e-05  
  3.8100e-08    2.511e-05  
  3.8200e-08    2.513e-05  
  3.8300e-08    2.514e-05  
  3.8400e-08    2.516e-05  
  3.8500e-08    2.516e-05  
  3.8600e-08    2.514e-05  
  3.8700e-08    2.512e-05  
  3.8800e-08    2.510e-05  
  3.8900e-08    2.508e-05  
  3.9000e-08    2.506e-05  
  3.9100e-08    2.504e-05  
  3.9200e-08    2.502e-05  
  3.9300e-08    2.500e-05  
  3.9400e-08    2.498e-05  
  3.9500e-08    2.496e-05  
  3.9600e-08    2.494e-05  
  3.9700e-08    2.492e-05  
  3.9800e-08    2.490e-05  
  3.9900e-08    2.488e-05  
  4.0000e-08    2.486e-05  
y
-----------------------------------------------
x

        time    current    
                    vdd    
  0.0000e+00   -6.725e-07  
  1.0000e-10   -6.725e-07  
  2.0000e-10   -6.725e-07  
  3.0000e-10   -6.725e-07  
  4.0000e-10   -6.725e-07  
  5.0000e-10   -6.725e-07  
  6.0000e-10   -6.725e-07  
  7.0000e-10   -6.725e-07  
  8.0000e-10   -6.725e-07  
  9.0000e-10   -6.725e-07  
  1.0000e-09   -6.725e-07  
  1.1000e-09   -6.725e-07  
  1.2000e-09   -6.725e-07  
  1.3000e-09   -6.725e-07  
  1.4000e-09   -6.725e-07  
  1.5000e-09   -6.725e-07  
  1.6000e-09   -6.725e-07  
  1.7000e-09   -6.725e-07  
  1.8000e-09   -6.725e-07  
  1.9000e-09   -6.725e-07  
  2.0000e-09   -6.725e-07  
  2.1000e-09   -6.725e-07  
  2.2000e-09   -6.725e-07  
  2.3000e-09   -6.725e-07  
  2.4000e-09   -6.725e-07  
  2.5000e-09   -6.725e-07  
  2.6000e-09   -6.725e-07  
  2.7000e-09   -6.725e-07  
  2.8000e-09   -6.725e-07  
  2.9000e-09   -6.725e-07  
  3.0000e-09   -6.725e-07  
  3.1000e-09   -6.725e-07  
  3.2000e-09   -6.725e-07  
  3.3000e-09   -6.725e-07  
  3.4000e-09   -6.725e-07  
  3.5000e-09   -6.725e-07  
  3.6000e-09   -6.725e-07  
  3.7000e-09   -6.725e-07  
  3.8000e-09   -6.725e-07  
  3.9000e-09   -6.725e-07  
  4.0000e-09   -6.725e-07  
  4.1000e-09   -6.725e-07  
  4.2000e-09   -6.725e-07  
  4.3000e-09   -6.725e-07  
  4.4000e-09   -6.725e-07  
  4.5000e-09   -6.725e-07  
  4.6000e-09   -6.725e-07  
  4.7000e-09   -6.725e-07  
  4.8000e-09   -6.725e-07  
  4.9000e-09   -6.725e-07  
  5.0000e-09   -6.725e-07  
  5.1000e-09   -6.647e-07  
  5.2000e-09   -6.725e-07  
  5.3000e-09   -6.725e-07  
  5.4000e-09   -6.724e-07  
  5.5000e-09   -6.724e-07  
  5.6000e-09   -6.724e-07  
  5.7000e-09   -6.725e-07  
  5.8000e-09   -6.725e-07  
  5.9000e-09   -6.725e-07  
  6.0000e-09   -6.724e-07  
  6.1000e-09   -6.724e-07  
  6.2000e-09   -6.724e-07  
  6.3000e-09   -6.724e-07  
  6.4000e-09   -6.724e-07  
  6.5000e-09   -6.724e-07  
  6.6000e-09   -6.724e-07  
  6.7000e-09   -6.724e-07  
  6.8000e-09   -6.724e-07  
  6.9000e-09   -6.724e-07  
  7.0000e-09   -6.724e-07  
  7.1000e-09   -6.724e-07  
  7.2000e-09   -6.724e-07  
  7.3000e-09   -6.724e-07  
  7.4000e-09   -6.725e-07  
  7.5000e-09   -6.725e-07  
  7.6000e-09   -6.600e-07  
  7.7000e-09   -6.707e-07  
  7.8000e-09   -6.699e-07  
  7.9000e-09   -6.705e-07  
  8.0000e-09   -6.709e-07  
  8.1000e-09   -6.706e-07  
  8.2000e-09   -6.704e-07  
  8.3000e-09   -6.702e-07  
  8.4000e-09   -6.700e-07  
  8.5000e-09   -6.697e-07  
  8.6000e-09   -6.697e-07  
  8.7000e-09   -6.697e-07  
  8.8000e-09   -6.698e-07  
  8.9000e-09   -6.699e-07  
  9.0000e-09   -6.700e-07  
  9.1000e-09   -6.701e-07  
  9.2000e-09   -6.702e-07  
  9.3000e-09   -6.703e-07  
  9.4000e-09   -6.704e-07  
  9.5000e-09   -6.705e-07  
  9.6000e-09   -6.706e-07  
  9.7000e-09   -6.707e-07  
  9.8000e-09   -6.707e-07  
  9.9000e-09   -6.708e-07  
  1.0000e-08   -6.709e-07  
  1.0100e-08   -7.157e-07  
  1.0200e-08   -6.727e-07  
  1.0300e-08   -6.720e-07  
  1.0400e-08   -6.724e-07  
  1.0500e-08   -6.730e-07  
  1.0600e-08   -6.728e-07  
  1.0700e-08   -6.726e-07  
  1.0800e-08   -6.724e-07  
  1.0900e-08   -6.722e-07  
  1.1000e-08   -6.720e-07  
  1.1100e-08   -6.719e-07  
  1.1200e-08   -6.720e-07  
  1.1300e-08   -6.721e-07  
  1.1400e-08   -6.721e-07  
  1.1500e-08   -6.722e-07  
  1.1600e-08   -6.723e-07  
  1.1700e-08   -6.724e-07  
  1.1800e-08   -6.725e-07  
  1.1900e-08   -6.726e-07  
  1.2000e-08   -6.726e-07  
  1.2100e-08   -6.727e-07  
  1.2200e-08   -6.728e-07  
  1.2300e-08   -6.729e-07  
  1.2400e-08   -6.730e-07  
  1.2500e-08   -6.730e-07  
  1.2600e-08   -5.700e-07  
  1.2700e-08   -6.726e-07  
  1.2800e-08   -6.725e-07  
  1.2900e-08   -6.732e-07  
  1.3000e-08   -6.719e-07  
  1.3100e-08   -6.714e-07  
  1.3200e-08   -6.719e-07  
  1.3300e-08   -6.723e-07  
  1.3400e-08   -6.728e-07  
  1.3500e-08   -6.732e-07  
  1.3600e-08   -6.737e-07  
  1.3700e-08   -6.735e-07  
  1.3800e-08   -6.733e-07  
  1.3900e-08   -6.731e-07  
  1.4000e-08   -6.729e-07  
  1.4100e-08   -6.727e-07  
  1.4200e-08   -6.725e-07  
  1.4300e-08   -6.723e-07  
  1.4400e-08   -6.721e-07  
  1.4500e-08   -6.719e-07  
  1.4600e-08   -6.718e-07  
  1.4700e-08   -6.716e-07  
  1.4800e-08   -6.714e-07  
  1.4900e-08   -6.718e-07  
  1.5000e-08   -6.736e-07  
  1.5100e-08   -6.290e-07  
  1.5200e-08   -6.727e-07  
  1.5300e-08   -6.723e-07  
  1.5400e-08   -6.727e-07  
  1.5500e-08   -6.725e-07  
  1.5600e-08   -6.723e-07  
  1.5700e-08   -6.722e-07  
  1.5800e-08   -6.722e-07  
  1.5900e-08   -6.723e-07  
  1.6000e-08   -6.723e-07  
  1.6100e-08   -6.724e-07  
  1.6200e-08   -6.725e-07  
  1.6300e-08   -6.725e-07  
  1.6400e-08   -6.726e-07  
  1.6500e-08   -6.726e-07  
  1.6600e-08   -6.727e-07  
  1.6700e-08   -6.726e-07  
  1.6800e-08   -6.725e-07  
  1.6900e-08   -6.725e-07  
  1.7000e-08   -6.724e-07  
  1.7100e-08   -6.724e-07  
  1.7200e-08   -6.723e-07  
  1.7300e-08   -6.723e-07  
  1.7400e-08   -6.722e-07  
  1.7500e-08   -6.721e-07  
  1.7600e-08   -9.546e-07  
  1.7700e-08   -1.210e-09  
  1.7800e-08    6.622e-10  
  1.7900e-08   -2.816e-09  
  1.8000e-08   -8.073e-10  
  1.8100e-08    1.444e-09  
  1.8200e-08   -9.830e-12  
  1.8300e-08   -1.464e-09  
  1.8400e-08   -2.652e-09  
  1.8500e-08   -1.760e-09  
  1.8600e-08   -8.687e-10  
  1.8700e-08    2.293e-11  
  1.8800e-08    9.146e-10  
  1.8900e-08    1.530e-09  
  1.9000e-08    9.838e-10  
  1.9100e-08    4.373e-10  
  1.9200e-08   -1.092e-10  
  1.9300e-08   -6.556e-10  
  1.9400e-08   -1.202e-09  
  1.9500e-08   -1.749e-09  
  1.9600e-08   -2.295e-09  
  1.9700e-08   -2.275e-09  
  1.9800e-08   -9.648e-10  
  1.9900e-08    3.454e-10  
  2.0000e-08    1.656e-09  
  2.0100e-08   -8.913e-08  
  2.0200e-08   -1.955e-09  
  2.0300e-08   -2.917e-09  
  2.0400e-08   -2.079e-09  
  2.0500e-08   -2.503e-09  
  2.0600e-08   -2.927e-09  
  2.0700e-08   -3.174e-09  
  2.0800e-08   -3.042e-09  
  2.0900e-08   -2.909e-09  
  2.1000e-08   -2.777e-09  
  2.1100e-08   -2.644e-09  
  2.1200e-08   -2.512e-09  
  2.1300e-08   -2.379e-09  
  2.1400e-08   -2.247e-09  
  2.1500e-08   -2.114e-09  
  2.1600e-08   -2.179e-09  
  2.1700e-08   -2.287e-09  
  2.1800e-08   -2.394e-09  
  2.1900e-08   -2.502e-09  
  2.2000e-08   -2.610e-09  
  2.2100e-08   -2.718e-09  
  2.2200e-08   -2.826e-09  
  2.2300e-08   -2.934e-09  
  2.2400e-08   -3.042e-09  
  2.2500e-08   -3.150e-09  
  2.2600e-08   -2.620e-07  
  2.2700e-08   -1.130e-09  
  2.2800e-08   -1.278e-09  
  2.2900e-08   -2.659e-09  
  2.3000e-08   -4.028e-09  
  2.3100e-08   -3.116e-09  
  2.3200e-08   -2.204e-09  
  2.3300e-08   -1.292e-09  
  2.3400e-08   -1.291e-09  
  2.3500e-08   -1.683e-09  
  2.3600e-08   -2.074e-09  
  2.3700e-08   -2.466e-09  
  2.3800e-08   -2.857e-09  
  2.3900e-08   -3.249e-09  
  2.4000e-08   -3.640e-09  
  2.4100e-08   -4.032e-09  
  2.4200e-08   -3.918e-09  
  2.4300e-08   -3.561e-09  
  2.4400e-08   -3.204e-09  
  2.4500e-08   -2.846e-09  
  2.4600e-08   -2.489e-09  
  2.4700e-08   -2.131e-09  
  2.4800e-08   -1.774e-09  
  2.4900e-08   -1.417e-09  
  2.5000e-08   -1.059e-09  
  2.5100e-08    6.941e-08  
  2.5200e-08   -3.860e-09  
  2.5300e-08   -1.982e-09  
  2.5400e-08   -2.981e-09  
  2.5500e-08   -3.056e-09  
  2.5600e-08   -2.724e-09  
  2.5700e-08   -2.393e-09  
  2.5800e-08   -2.061e-09  
  2.5900e-08   -2.135e-09  
  2.6000e-08   -2.251e-09  
  2.6100e-08   -2.367e-09  
  2.6200e-08   -2.482e-09  
  2.6300e-08   -2.598e-09  
  2.6400e-08   -2.714e-09  
  2.6500e-08   -2.830e-09  
  2.6600e-08   -2.945e-09  
  2.6700e-08   -3.061e-09  
  2.6800e-08   -3.168e-09  
  2.6900e-08   -3.015e-09  
  2.7000e-08   -2.862e-09  
  2.7100e-08   -2.709e-09  
  2.7200e-08   -2.556e-09  
  2.7300e-08   -2.403e-09  
  2.7400e-08   -2.249e-09  
  2.7500e-08   -2.096e-09  
  2.7600e-08   -8.503e-06  
  2.7700e-08   -2.573e-06  
  2.7800e-08   -3.669e-08  
  2.7900e-08   -5.575e-09  
  2.8000e-08   -4.764e-08  
  2.8100e-08   -9.394e-09  
  2.8200e-08    1.051e-08  
  2.8300e-08    1.820e-08  
  2.8400e-08   -7.173e-08  
  2.8500e-08    4.473e-08  
  2.8600e-08    3.967e-08  
  2.8700e-08   -5.473e-08  
  2.8800e-08   -5.196e-08  
  2.8900e-08    2.467e-08  
  2.9000e-08    8.833e-08  
  2.9100e-08    2.621e-08  
  2.9200e-08   -3.592e-08  
  2.9300e-08   -9.321e-08  
  2.9400e-08   -4.281e-08  
  2.9500e-08    7.598e-09  
  2.9600e-08    5.800e-08  
  2.9700e-08    7.785e-08  
  2.9800e-08    2.013e-08  
  2.9900e-08   -3.759e-08  
  3.0000e-08   -9.531e-08  
  3.0100e-08    1.637e-08  
  3.0200e-08   -1.533e-09  
  3.0300e-08   -3.115e-10  
  3.0400e-08   -7.347e-10  
  3.0500e-08   -6.896e-10  
  3.0600e-08   -5.903e-10  
  3.0700e-08   -4.911e-10  
  3.0800e-08   -3.962e-10  
  3.0900e-08   -4.251e-10  
  3.1000e-08   -4.541e-10  
  3.1100e-08   -4.830e-10  
  3.1200e-08   -5.119e-10  
  3.1300e-08   -5.409e-10  
  3.1400e-08   -5.698e-10  
  3.1500e-08   -5.987e-10  
  3.1600e-08   -6.277e-10  
  3.1700e-08   -6.566e-10  
  3.1800e-08   -6.666e-10  
  3.1900e-08   -6.331e-10  
  3.2000e-08   -5.996e-10  
  3.2100e-08   -5.660e-10  
  3.2200e-08   -5.325e-10  
  3.2300e-08   -4.989e-10  
  3.2400e-08   -4.654e-10  
  3.2500e-08   -4.318e-10  
  3.2600e-08   -2.430e-08  
  3.2700e-08   -2.449e-10  
  3.2800e-08   -5.036e-10  
  3.2900e-08   -5.225e-10  
  3.3000e-08   -5.783e-10  
  3.3100e-08   -5.778e-10  
  3.3200e-08   -5.595e-10  
  3.3300e-08   -5.412e-10  
  3.3400e-08   -5.229e-10  
  3.3500e-08   -5.046e-10  
  3.3600e-08   -4.916e-10  
  3.3700e-08   -4.991e-10  
  3.3800e-08   -5.067e-10  
  3.3900e-08   -5.142e-10  
  3.4000e-08   -5.217e-10  
  3.4100e-08   -5.292e-10  
  3.4200e-08   -5.367e-10  
  3.4300e-08   -5.443e-10  
  3.4400e-08   -5.518e-10  
  3.4500e-08   -5.593e-10  
  3.4600e-08   -5.668e-10  
  3.4700e-08   -5.743e-10  
  3.4800e-08   -5.734e-10  
  3.4900e-08   -5.365e-10  
  3.5000e-08   -4.996e-10  
  3.5100e-08   -5.091e-10  
  3.5200e-08   -5.186e-10  
  3.5300e-08   -5.281e-10  
  3.5400e-08   -5.330e-10  
  3.5500e-08   -5.332e-10  
  3.5600e-08   -5.334e-10  
  3.5700e-08   -5.336e-10  
  3.5800e-08   -5.337e-10  
  3.5900e-08   -5.339e-10  
  3.6000e-08   -5.341e-10  
  3.6100e-08   -5.343e-10  
  3.6200e-08   -5.345e-10  
  3.6300e-08   -5.346e-10  
  3.6400e-08   -5.348e-10  
  3.6500e-08   -5.349e-10  
  3.6600e-08   -5.347e-10  
  3.6700e-08   -5.345e-10  
  3.6800e-08   -5.344e-10  
  3.6900e-08   -5.342e-10  
  3.7000e-08   -5.340e-10  
  3.7100e-08   -5.338e-10  
  3.7200e-08   -5.337e-10  
  3.7300e-08   -5.335e-10  
  3.7400e-08   -5.333e-10  
  3.7500e-08   -5.331e-10  
  3.7600e-08   -5.329e-10  
  3.7700e-08   -5.328e-10  
  3.7800e-08   -5.326e-10  
  3.7900e-08   -5.324e-10  
  3.8000e-08   -5.322e-10  
  3.8100e-08   -5.320e-10  
  3.8200e-08   -5.319e-10  
  3.8300e-08   -5.317e-10  
  3.8400e-08   -5.315e-10  
  3.8500e-08   -5.314e-10  
  3.8600e-08   -5.316e-10  
  3.8700e-08   -5.317e-10  
  3.8800e-08   -5.319e-10  
  3.8900e-08   -5.320e-10  
  3.9000e-08   -5.322e-10  
  3.9100e-08   -5.324e-10  
  3.9200e-08   -5.325e-10  
  3.9300e-08   -5.327e-10  
  3.9400e-08   -5.328e-10  
  3.9500e-08   -5.330e-10  
  3.9600e-08   -5.332e-10  
  3.9700e-08   -5.333e-10  
  3.9800e-08   -5.335e-10  
  3.9900e-08   -5.336e-10  
  4.0000e-08   -5.338e-10  
y
-----------------------------------------------

          ***** job concluded
1****** HSPICE -- H-2013.03 64-BIT (Mar  7 2013) win64 ******                   
 ******  
 'inverter'

  ******  job statistics summary tnom=  25.000 temp=  25.000 *****

  ******  HSPICE Threads Information  ******

  Command Line Threads Count :     1
  Available CPU Count        :     4
  Actual Threads Count       :     1


  ******  Circuit Statistics  ******
  # nodes       =     462 # elements   =    1046
  # resistors   =     192 # capacitors =     464 # inductors   =       0
  # mutual_inds =       0 # vccs       =     128 # vcvs        =     224
  # cccs        =       0 # ccvs       =       0 # volt_srcs   =      38
  # curr_srcs   =       0 # diodes     =       0 # bjts        =       0
  # jfets       =       0 # mosfets    =       0 # U elements  =       0
  # T elements  =       0 # W elements =       0 # B elements  =       0
  # S elements  =       0 # P elements =       0 # va device   =       0
  # vector_srcs =       0 # N elements =       0


  ******  Runtime Statistics (seconds)  ******

  analysis           time    # points   tot. iter  conv.iter
  op point           0.42           1          19
  transient         12.32         401         672         215 rev=         9
  readin             0.05
  errchk             0.25
  setup              0.00
  output             0.00


           peak memory used         51.38 megabytes
           total cpu time           13.04 seconds
           total elapsed time       13.07 seconds
           job started at     23:53:21 02/28/2018
           job ended   at     23:53:34 02/28/2018


  lic: Release hspice token(s) 
 lic: total license checkout elapse time:        0.02(s)
