 ****** HSPICE -- H-2013.03 64-BIT (Mar  7 2013) win64 ******                   
  Copyright (C) 2013 Synopsys, Inc. All Rights Reserved.                        
  Unpublished-rights reserved under US copyright laws.
  This program is protected by law and is subject to the
  terms and conditions of the license agreement from Synopsys.
  Use of this program is your acceptance to be bound by the
  license agreement. HSPICE is the trademark of Synopsys, Inc.
  Input File: sram10nm.sp                                                       
  Command line options: -i sram10nm.sp -o sram10nm.lis
  lic:  
  lic: FLEXlm: v10.9.8 
  lic: USER:   Dell                 HOSTNAME: DESKTOP-O3DHVG1 
  lic: HOSTID: "28f10e041fd4 a0d37a293ca4 a0d37a293ca5" PID:      11492 
  lic: Using FLEXlm license file: 
  lic: C:\synopsys\Hspice_H-2013.03\lic.dat\lic.lic 
  lic: Checkout 1 hspice 
  lic: License/Maintenance for hspice will expire on 31-dec-2019/2019.12 
  lic: NODE LOCKED license on hostid "28f10e041fd4 a0d37a293ca4 a0d37a293ca5" 
  lic:   
 Init: read install configuration file: C:\synopsys\Hspice_H-2013.03\meta.cfg
 scientific notation:
 a=10**-18  f=10**-15  p=10**-12  n=10**-9  u=10**-6
 m=10**-3   k=10**3    x=10**6    g=10**9 
1****** HSPICE -- H-2013.03 64-BIT (Mar  7 2013) win64 ******                   
 ******  
 'inverter'

  ******  circuit name directory
 circuit number to circuit name directory
   number circuitname                     definition         multiplier
        0 main circuit


 circuit parameter definitions
  parameter          =  value 

     0:temp                                                    = 2.700e+01      
     0:m_cnt                                                   = 1.000e+00      
     0:wg                                                      = 4.000e-09      
     0:cb                                                      = 4.000e-11      
     0:lg                                                      = 1.000e-08      
     0:lgef                                                    = 1.000e-07      
     0:vfn                                                     = 0.000e+00      
     0:vfp                                                     = 0.000e+00      
     0:m                                                       = 0.000e+00      
     0:n                                                       = 1.900e+01      
     0:hox                                                     = 4.000e-09      
     1:tox                                                     = 4.000e-09      
     1:csub                                                    = 4.000e-11      
     1:pitch                                                   = 2.000e-08      
     1:n1                                                      = 0.000e+00      
     1:n2                                                      = 1.900e+01      
     1:vfbp                                                    = 0.000e+00      
     1:kgate                                                   = 1.600e+01      
     1:dout                                                    = 0.000e+00      
     1:sout                                                    = 0.000e+00      
     1:tubes                                                   = 1.000e+00      
     1:lch                                                     = 1.000e-08      
     1:lgeff                                                   = 1.000e-07      
     1:lss                                                     = 3.200e-08      
     1:ldd                                                     = 3.200e-08      
     2:tox                                                     = 4.000e-09      
     2:csub                                                    = 4.000e-11      
     2:pitch                                                   = 2.000e-08      
     2:n1                                                      = 0.000e+00      
     2:n2                                                      = 1.000e+01      
     2:vfbp                                                    = 0.000e+00      
     2:kgate                                                   = 1.600e+01      
     2:dout                                                    = 0.000e+00      
     2:sout                                                    = 0.000e+00      
     2:tubes                                                   = 1.000e+00      
     2:lch                                                     = 1.000e-08      
     2:lgeff                                                   = 1.000e-07      
     2:lss                                                     = 3.200e-08      
     2:ldd                                                     = 3.200e-08      
     3:tox                                                     = 4.000e-09      
     3:csub                                                    = 4.000e-11      
     3:pitch                                                   = 2.000e-08      
     3:n1                                                      = 0.000e+00      
     3:n2                                                      = 1.300e+01      
     3:vfbp                                                    = 0.000e+00      
     3:kgate                                                   = 1.600e+01      
     3:dout                                                    = 0.000e+00      
     3:sout                                                    = 0.000e+00      
     3:tubes                                                   = 1.000e+00      
     3:lch                                                     = 1.000e-08      
     3:lgeff                                                   = 1.000e-07      
     3:lss                                                     = 3.200e-08      
     3:ldd                                                     = 3.200e-08      
     4:tox                                                     = 4.000e-09      
     4:csub                                                    = 4.000e-11      
     4:vfbn                                                    = 0.000e+00      
     4:pitch                                                   = 2.000e-08      
     4:n1                                                      = 0.000e+00      
     4:n2                                                      = 1.300e+01      
     4:kgate                                                   = 1.600e+01      
     4:dout                                                    = 0.000e+00      
     4:sout                                                    = 0.000e+00      
     4:tubes                                                   = 1.000e+00      
     4:lch                                                     = 1.000e-08      
     4:lgeff                                                   = 1.000e-07      
     4:lss                                                     = 3.200e-08      
     4:ldd                                                     = 3.200e-08      
     5:tox                                                     = 4.000e-09      
     5:csub                                                    = 4.000e-11      
     5:vfbn                                                    = 0.000e+00      
     5:pitch                                                   = 2.000e-08      
     5:n1                                                      = 0.000e+00      
     5:n2                                                      = 1.900e+01      
     5:kgate                                                   = 1.600e+01      
     5:dout                                                    = 0.000e+00      
     5:sout                                                    = 0.000e+00      
     5:tubes                                                   = 1.000e+00      
     5:lch                                                     = 1.000e-08      
     5:lgeff                                                   = 1.000e-07      
     5:lss                                                     = 3.200e-08      
     5:ldd                                                     = 3.200e-08      
     6:tox                                                     = 4.000e-09      
     6:csub                                                    = 4.000e-11      
     6:vfbn                                                    = 0.000e+00      
     6:pitch                                                   = 2.000e-08      
     6:n1                                                      = 0.000e+00      
     6:n2                                                      = 1.000e+01      
     6:kgate                                                   = 1.600e+01      
     6:dout                                                    = 0.000e+00      
     6:sout                                                    = 0.000e+00      
     6:tubes                                                   = 1.000e+00      
     6:lch                                                     = 1.000e-08      
     6:lgeff                                                   = 1.000e-07      
     6:lss                                                     = 3.200e-08      
     6:ldd                                                     = 3.200e-08      




 constants  - tnom         kt           vt           gapsi        ni
            2.9815e+02   4.1163e-21   2.5692e-02   1.1156e+00   1.2565e+16 
  **info** (sram10nm.sp:130) DC voltage reset to initial transient source value              in source        0:vrwl                new dc=  0.0000D+00

 **warning**  associated with encrypted block(s) were suppressed due to encrypted content

1****** HSPICE -- H-2013.03 64-BIT (Mar  7 2013) win64 ******                   
 ******  
 'inverter'

  ******  circuit element summary tnom=  25.000 temp=  25.000 *****


 **** independent sources

     name         node1        node2      dc volt    ac mag    ac phase    type
  vdd  vdd               0                  9.000e-01  0.000e+00  0.000e+00 dc   
  vrwl  rwl               0                  0.000e+00  0.000e+00  0.000e+00 pwl  
                time        value

                 0.000e+00    0.000e+00
                 1.250e-08    0.000e+00
                 1.260e-08    9.000e-01
                 1.500e-08    9.000e-01
                 1.510e-08    0.000e+00
                 2.250e-08    0.000e+00
                 2.260e-08    9.000e-01
                 2.500e-08    9.000e-01
                 2.510e-08    0.000e+00
                 3.250e-08    0.000e+00
                 3.260e-08    9.000e-01
                 3.500e-08    9.000e-01


  vrwlb  rwlb              0                  9.000e-01  0.000e+00  0.000e+00 pwl  
                time        value

                 0.000e+00    9.000e-01
                 1.250e-08    9.000e-01
                 1.260e-08    0.000e+00
                 1.500e-08    0.000e+00
                 1.510e-08    9.000e-01
                 2.250e-08    9.000e-01
                 2.260e-08    0.000e+00
                 2.500e-08    0.000e+00
                 2.510e-08    9.000e-01
                 3.250e-08    9.000e-01
                 3.260e-08    0.000e+00
                 3.500e-08    0.000e+00


  vwbl  wbl               0                  0.000e+00  0.000e+00  0.000e+00 pwl  
                time        value

                 0.000e+00    0.000e+00
                 5.000e-09    0.000e+00
                 5.100e-09    4.500e-01
                 1.000e-08    4.500e-01
                 1.010e-08    0.000e+00
                 1.500e-08    0.000e+00
                 1.510e-08    9.000e-01
                 2.000e-08    9.000e-01
                 2.010e-08    0.000e+00
                 3.000e-08    0.000e+00
                 4.000e-08    0.000e+00


  vwwl  wwl               0                  0.000e+00  0.000e+00  0.000e+00 pwl  
                time        value

                 0.000e+00    0.000e+00
                 7.500e-09    0.000e+00
                 7.600e-09    9.000e-01
                 1.000e-08    9.000e-01
                 1.010e-08    0.000e+00
                 1.750e-08    0.000e+00
                 1.760e-08    9.000e-01
                 2.000e-08    9.000e-01
                 2.010e-08    0.000e+00
                 2.750e-08    0.000e+00
                 2.760e-08    9.000e-01
                 3.000e-08    9.000e-01
                 3.010e-08    0.000e+00
                 4.000e-08    0.000e+00


  vwwlb  wwlb              0                  9.000e-01  0.000e+00  0.000e+00 pwl  
                time        value

                 0.000e+00    9.000e-01
                 7.500e-09    9.000e-01
                 7.600e-09    0.000e+00
                 1.000e-08    0.000e+00
                 1.010e-08    9.000e-01
                 1.750e-08    9.000e-01
                 1.760e-08    0.000e+00
                 2.000e-08    0.000e+00
                 2.010e-08    9.000e-01
                 2.750e-08    9.000e-01
                 2.760e-08    0.000e+00
                 3.000e-08    0.000e+00
                 3.010e-08    9.000e-01
                 4.000e-08    9.000e-01




 **** subcircuit calls
    name        subcircuit         external nodes


         0:xcnt7    pcnfet          0:vdd         0:q           0:n2      
                               0:n2      


         0:xcnt8    pcnfet          0:vdd         0:q           0:qb      
                               0:qb      


         0:xcnt6    pcnfet          0:qb          0:qb          0:n2      
                               0:n2      


         0:xcnt5    ncnfet          0:qb          0:qb          0:n1      
                               0:n1      


         0:xcnt3    ncnfet          0:n1          0:q           0:0       
                               0:0       


         0:xcnt4    ncnfet          0:qb          0:q           0:0       
                               0:0       


         0:xcnt14   pcnfet          0:vdd         0:qb          0:q       
                               0:q       


         0:xcnt13   pcnfet          0:vdd         0:qb          0:n4      
                               0:n4      


         0:xcnt12   pcnfet          0:q           0:q           0:n4      
                               0:n4      


         0:xcnt11   ncnfet          0:q           0:q           0:n3      
                               0:n3      


         0:xcnt10   ncnfet          0:q           0:qb          0:0       
                               0:0       


         0:xcnt9    ncnfet          0:n3          0:qb          0:0       
                               0:0       


         0:xcnt2    pcnfet          0:q           0:wwlb        0:wbl     
                               0:wbl     


         0:xcnt1    ncnfet          0:wbl         0:wwl         0:q       
                               0:q       


         0:xcnt16   pcnfet          0:vdd         0:qb          0:n5      
                               0:n5      


         0:xcnt15   ncnfet          0:n5          0:qb          0:0       
                               0:0       


         0:xcnt18   pcnfet          0:rbl         0:rwlb        0:n5      
                               0:n5      


         0:xcnt17   ncnfet          0:n5          0:rwl         0:rbl     
                               0:rbl     


  
1****** HSPICE -- H-2013.03 64-BIT (Mar  7 2013) win64 ******                   
 ******  
 'inverter'

  ******  element node table
                                                                                      
 0                vdd              vrwl             vrwlb            vwbl             
                  vwwl             vwwlb                                              
 rwl              vrwl                                                                
 rwlb             vrwlb                                                               
 vdd              vdd                                                                 
 wbl              vwbl                                                                
 wwl              vwwl                                                                
 wwlb             vwwlb                                                               
  **warning** PIVOT option setting is simplified, pivot = 13 is obsolete,
              automatically switch to pivot = 1.
 *****************************************************************
 ******  option summary
 ******
 runlvl  = 3         bypass  = 2         
  Opening plot unit= 79
 file=sram10nm.pa0

1****** HSPICE -- H-2013.03 64-BIT (Mar  7 2013) win64 ******                   
 ******  
 'inverter'

  ******  operating point information tnom=  25.000 temp=  25.000 *****
 ***** operating point status is voltage   simulation time is   0.000e+00
     node    =voltage       node    =voltage       node    =voltage

 + 0:n1      = 9.434e-02  0:n2      = 8.974e-01  0:n3      = 3.603e-03
 + 0:n4      = 8.135e-01  0:n5      = 1.742e-01  0:q       = 3.834e-01
 + 0:qb      = 5.330e-01  0:rbl     = 7.746e-03  0:rwl     = 0.000e+00
 + 0:rwlb    = 9.000e-01  0:vdd     = 9.000e-01  0:wbl     = 0.000e+00
 + 0:wwl     = 0.000e+00  0:wwlb    = 9.000e-01

 ******  
 'inverter'

  ******  transient analysis tnom=  25.000 temp=  25.000 *****
x

        time    voltage      voltage      voltage      voltage    
                     q           qb           rwl         rwlb    
  0.0000e+00    3.834e-01    5.330e-01    0.000e+00    9.000e-01  
  1.0000e-10    3.834e-01    5.330e-01    0.000e+00    9.000e-01  
  2.0000e-10    3.834e-01    5.330e-01    0.000e+00    9.000e-01  
  3.0000e-10    3.834e-01    5.330e-01    0.000e+00    9.000e-01  
  4.0000e-10    3.834e-01    5.330e-01    0.000e+00    9.000e-01  
  5.0000e-10    3.834e-01    5.330e-01    0.000e+00    9.000e-01  
  6.0000e-10    3.834e-01    5.330e-01    0.000e+00    9.000e-01  
  7.0000e-10    3.834e-01    5.330e-01    0.000e+00    9.000e-01  
  8.0000e-10    3.834e-01    5.330e-01    0.000e+00    9.000e-01  
  9.0000e-10    3.834e-01    5.330e-01    0.000e+00    9.000e-01  
  1.0000e-09    3.834e-01    5.330e-01    0.000e+00    9.000e-01  
  1.1000e-09    3.834e-01    5.330e-01    0.000e+00    9.000e-01  
  1.2000e-09    3.834e-01    5.330e-01    0.000e+00    9.000e-01  
  1.3000e-09    3.834e-01    5.330e-01    0.000e+00    9.000e-01  
  1.4000e-09    3.834e-01    5.330e-01    0.000e+00    9.000e-01  
  1.5000e-09    3.834e-01    5.330e-01    0.000e+00    9.000e-01  
  1.6000e-09    3.834e-01    5.330e-01    0.000e+00    9.000e-01  
  1.7000e-09    3.834e-01    5.330e-01    0.000e+00    9.000e-01  
  1.8000e-09    3.834e-01    5.330e-01    0.000e+00    9.000e-01  
  1.9000e-09    3.834e-01    5.330e-01    0.000e+00    9.000e-01  
  2.0000e-09    3.834e-01    5.330e-01    0.000e+00    9.000e-01  
  2.1000e-09    3.834e-01    5.330e-01    0.000e+00    9.000e-01  
  2.2000e-09    3.834e-01    5.330e-01    0.000e+00    9.000e-01  
  2.3000e-09    3.834e-01    5.330e-01    0.000e+00    9.000e-01  
  2.4000e-09    3.834e-01    5.330e-01    0.000e+00    9.000e-01  
  2.5000e-09    3.834e-01    5.330e-01    0.000e+00    9.000e-01  
  2.6000e-09    3.834e-01    5.330e-01    0.000e+00    9.000e-01  
  2.7000e-09    3.834e-01    5.330e-01    0.000e+00    9.000e-01  
  2.8000e-09    3.834e-01    5.330e-01    0.000e+00    9.000e-01  
  2.9000e-09    3.834e-01    5.330e-01    0.000e+00    9.000e-01  
  3.0000e-09    3.834e-01    5.330e-01    0.000e+00    9.000e-01  
  3.1000e-09    3.834e-01    5.330e-01    0.000e+00    9.000e-01  
  3.2000e-09    3.834e-01    5.330e-01    0.000e+00    9.000e-01  
  3.3000e-09    3.834e-01    5.330e-01    0.000e+00    9.000e-01  
  3.4000e-09    3.834e-01    5.330e-01    0.000e+00    9.000e-01  
  3.5000e-09    3.834e-01    5.330e-01    0.000e+00    9.000e-01  
  3.6000e-09    3.834e-01    5.330e-01    0.000e+00    9.000e-01  
  3.7000e-09    3.834e-01    5.330e-01    0.000e+00    9.000e-01  
  3.8000e-09    3.834e-01    5.330e-01    0.000e+00    9.000e-01  
  3.9000e-09    3.834e-01    5.330e-01    0.000e+00    9.000e-01  
  4.0000e-09    3.834e-01    5.330e-01    0.000e+00    9.000e-01  
  4.1000e-09    3.834e-01    5.330e-01    0.000e+00    9.000e-01  
  4.2000e-09    3.834e-01    5.330e-01    0.000e+00    9.000e-01  
  4.3000e-09    3.834e-01    5.330e-01    0.000e+00    9.000e-01  
  4.4000e-09    3.834e-01    5.330e-01    0.000e+00    9.000e-01  
  4.5000e-09    3.834e-01    5.330e-01    0.000e+00    9.000e-01  
  4.6000e-09    3.834e-01    5.330e-01    0.000e+00    9.000e-01  
  4.7000e-09    3.834e-01    5.330e-01    0.000e+00    9.000e-01  
  4.8000e-09    3.834e-01    5.330e-01    0.000e+00    9.000e-01  
  4.9000e-09    3.834e-01    5.330e-01    0.000e+00    9.000e-01  
  5.0000e-09    3.834e-01    5.330e-01    0.000e+00    9.000e-01  
  5.1000e-09    4.318e-01    5.287e-01    0.000e+00    9.000e-01  
  5.2000e-09    4.222e-01    5.097e-01    0.000e+00    9.000e-01  
  5.3000e-09    4.213e-01    4.989e-01    0.000e+00    9.000e-01  
  5.4000e-09    4.229e-01    4.909e-01    0.000e+00    9.000e-01  
  5.5000e-09    4.259e-01    4.851e-01    0.000e+00    9.000e-01  
  5.6000e-09    4.289e-01    4.801e-01    0.000e+00    9.000e-01  
  5.7000e-09    4.318e-01    4.766e-01    0.000e+00    9.000e-01  
  5.8000e-09    4.348e-01    4.731e-01    0.000e+00    9.000e-01  
  5.9000e-09    4.377e-01    4.696e-01    0.000e+00    9.000e-01  
  6.0000e-09    4.398e-01    4.671e-01    0.000e+00    9.000e-01  
  6.1000e-09    4.414e-01    4.656e-01    0.000e+00    9.000e-01  
  6.2000e-09    4.429e-01    4.640e-01    0.000e+00    9.000e-01  
  6.3000e-09    4.444e-01    4.624e-01    0.000e+00    9.000e-01  
  6.4000e-09    4.459e-01    4.608e-01    0.000e+00    9.000e-01  
  6.5000e-09    4.475e-01    4.593e-01    0.000e+00    9.000e-01  
  6.6000e-09    4.484e-01    4.583e-01    0.000e+00    9.000e-01  
  6.7000e-09    4.488e-01    4.579e-01    0.000e+00    9.000e-01  
  6.8000e-09    4.492e-01    4.575e-01    0.000e+00    9.000e-01  
  6.9000e-09    4.496e-01    4.571e-01    0.000e+00    9.000e-01  
  7.0000e-09    4.500e-01    4.567e-01    0.000e+00    9.000e-01  
  7.1000e-09    4.504e-01    4.563e-01    0.000e+00    9.000e-01  
  7.2000e-09    4.508e-01    4.559e-01    0.000e+00    9.000e-01  
  7.3000e-09    4.512e-01    4.555e-01    0.000e+00    9.000e-01  
  7.4000e-09    4.516e-01    4.550e-01    0.000e+00    9.000e-01  
  7.5000e-09    4.520e-01    4.546e-01    0.000e+00    9.000e-01  
  7.6000e-09    4.893e-01    4.566e-01    0.000e+00    9.000e-01  
  7.7000e-09    4.589e-01    4.475e-01    0.000e+00    9.000e-01  
  7.8000e-09    4.530e-01    4.489e-01    0.000e+00    9.000e-01  
  7.9000e-09    4.516e-01    4.506e-01    0.000e+00    9.000e-01  
  8.0000e-09    4.510e-01    4.521e-01    0.000e+00    9.000e-01  
  8.1000e-09    4.509e-01    4.530e-01    0.000e+00    9.000e-01  
  8.2000e-09    4.507e-01    4.538e-01    0.000e+00    9.000e-01  
  8.3000e-09    4.507e-01    4.542e-01    0.000e+00    9.000e-01  
  8.4000e-09    4.506e-01    4.544e-01    0.000e+00    9.000e-01  
  8.5000e-09    4.506e-01    4.546e-01    0.000e+00    9.000e-01  
  8.6000e-09    4.505e-01    4.547e-01    0.000e+00    9.000e-01  
  8.7000e-09    4.505e-01    4.549e-01    0.000e+00    9.000e-01  
  8.8000e-09    4.505e-01    4.550e-01    0.000e+00    9.000e-01  
  8.9000e-09    4.505e-01    4.550e-01    0.000e+00    9.000e-01  
  9.0000e-09    4.505e-01    4.549e-01    0.000e+00    9.000e-01  
  9.1000e-09    4.505e-01    4.549e-01    0.000e+00    9.000e-01  
  9.2000e-09    4.505e-01    4.549e-01    0.000e+00    9.000e-01  
  9.3000e-09    4.505e-01    4.549e-01    0.000e+00    9.000e-01  
  9.4000e-09    4.505e-01    4.549e-01    0.000e+00    9.000e-01  
  9.5000e-09    4.505e-01    4.548e-01    0.000e+00    9.000e-01  
  9.6000e-09    4.505e-01    4.548e-01    0.000e+00    9.000e-01  
  9.7000e-09    4.505e-01    4.548e-01    0.000e+00    9.000e-01  
  9.8000e-09    4.505e-01    4.548e-01    0.000e+00    9.000e-01  
  9.9000e-09    4.505e-01    4.548e-01    0.000e+00    9.000e-01  
  1.0000e-08    4.505e-01    4.548e-01    0.000e+00    9.000e-01  
  1.0100e-08    3.605e-01    4.559e-01    0.000e+00    9.000e-01  
  1.0200e-08    3.910e-01    4.836e-01    0.000e+00    9.000e-01  
  1.0300e-08    4.045e-01    4.888e-01    0.000e+00    9.000e-01  
  1.0400e-08    4.134e-01    4.884e-01    0.000e+00    9.000e-01  
  1.0500e-08    4.197e-01    4.850e-01    0.000e+00    9.000e-01  
  1.0600e-08    4.246e-01    4.814e-01    0.000e+00    9.000e-01  
  1.0700e-08    4.286e-01    4.775e-01    0.000e+00    9.000e-01  
  1.0800e-08    4.327e-01    4.736e-01    0.000e+00    9.000e-01  
  1.0900e-08    4.356e-01    4.707e-01    0.000e+00    9.000e-01  
  1.1000e-08    4.378e-01    4.683e-01    0.000e+00    9.000e-01  
  1.1100e-08    4.400e-01    4.659e-01    0.000e+00    9.000e-01  
  1.1200e-08    4.423e-01    4.636e-01    0.000e+00    9.000e-01  
  1.1300e-08    4.444e-01    4.614e-01    0.000e+00    9.000e-01  
  1.1400e-08    4.451e-01    4.606e-01    0.000e+00    9.000e-01  
  1.1500e-08    4.459e-01    4.598e-01    0.000e+00    9.000e-01  
  1.1600e-08    4.467e-01    4.591e-01    0.000e+00    9.000e-01  
  1.1700e-08    4.475e-01    4.583e-01    0.000e+00    9.000e-01  
  1.1800e-08    4.483e-01    4.575e-01    0.000e+00    9.000e-01  
  1.1900e-08    4.491e-01    4.567e-01    0.000e+00    9.000e-01  
  1.2000e-08    4.499e-01    4.560e-01    0.000e+00    9.000e-01  
  1.2100e-08    4.507e-01    4.552e-01    0.000e+00    9.000e-01  
  1.2200e-08    4.509e-01    4.549e-01    0.000e+00    9.000e-01  
  1.2300e-08    4.511e-01    4.548e-01    0.000e+00    9.000e-01  
  1.2400e-08    4.512e-01    4.547e-01    0.000e+00    9.000e-01  
  1.2500e-08    4.513e-01    4.546e-01    0.000e+00    9.000e-01  
  1.2600e-08    4.515e-01    4.535e-01    9.000e-01    0.000e+00  
  1.2700e-08    4.517e-01    4.539e-01    9.000e-01    0.000e+00  
  1.2800e-08    4.517e-01    4.539e-01    9.000e-01    0.000e+00  
  1.2900e-08    4.518e-01    4.539e-01    9.000e-01    0.000e+00  
  1.3000e-08    4.518e-01    4.539e-01    9.000e-01    0.000e+00  
  1.3100e-08    4.518e-01    4.539e-01    9.000e-01    0.000e+00  
  1.3200e-08    4.518e-01    4.539e-01    9.000e-01    0.000e+00  
  1.3300e-08    4.518e-01    4.539e-01    9.000e-01    0.000e+00  
  1.3400e-08    4.518e-01    4.539e-01    9.000e-01    0.000e+00  
  1.3500e-08    4.518e-01    4.539e-01    9.000e-01    0.000e+00  
  1.3600e-08    4.518e-01    4.539e-01    9.000e-01    0.000e+00  
  1.3700e-08    4.518e-01    4.539e-01    9.000e-01    0.000e+00  
  1.3800e-08    4.518e-01    4.539e-01    9.000e-01    0.000e+00  
  1.3900e-08    4.518e-01    4.539e-01    9.000e-01    0.000e+00  
  1.4000e-08    4.518e-01    4.539e-01    9.000e-01    0.000e+00  
  1.4100e-08    4.518e-01    4.539e-01    9.000e-01    0.000e+00  
  1.4200e-08    4.518e-01    4.539e-01    9.000e-01    0.000e+00  
  1.4300e-08    4.518e-01    4.539e-01    9.000e-01    0.000e+00  
  1.4400e-08    4.518e-01    4.539e-01    9.000e-01    0.000e+00  
  1.4500e-08    4.518e-01    4.539e-01    9.000e-01    0.000e+00  
  1.4600e-08    4.518e-01    4.539e-01    9.000e-01    0.000e+00  
  1.4700e-08    4.518e-01    4.539e-01    9.000e-01    0.000e+00  
  1.4800e-08    4.518e-01    4.539e-01    9.000e-01    0.000e+00  
  1.4900e-08    4.518e-01    4.539e-01    9.000e-01    0.000e+00  
  1.5000e-08    4.518e-01    4.539e-01    9.000e-01    0.000e+00  
  1.5100e-08    5.423e-01    4.629e-01    0.000e+00    9.000e-01  
  1.5200e-08    5.098e-01    4.388e-01    0.000e+00    9.000e-01  
  1.5300e-08    4.947e-01    4.333e-01    0.000e+00    9.000e-01  
  1.5400e-08    4.848e-01    4.325e-01    0.000e+00    9.000e-01  
  1.5500e-08    4.783e-01    4.342e-01    0.000e+00    9.000e-01  
  1.5600e-08    4.737e-01    4.364e-01    0.000e+00    9.000e-01  
  1.5700e-08    4.701e-01    4.387e-01    0.000e+00    9.000e-01  
  1.5800e-08    4.666e-01    4.411e-01    0.000e+00    9.000e-01  
  1.5900e-08    4.643e-01    4.429e-01    0.000e+00    9.000e-01  
  1.6000e-08    4.627e-01    4.444e-01    0.000e+00    9.000e-01  
  1.6100e-08    4.610e-01    4.458e-01    0.000e+00    9.000e-01  
  1.6200e-08    4.594e-01    4.473e-01    0.000e+00    9.000e-01  
  1.6300e-08    4.578e-01    4.488e-01    0.000e+00    9.000e-01  
  1.6400e-08    4.571e-01    4.494e-01    0.000e+00    9.000e-01  
  1.6500e-08    4.566e-01    4.499e-01    0.000e+00    9.000e-01  
  1.6600e-08    4.561e-01    4.503e-01    0.000e+00    9.000e-01  
  1.6700e-08    4.556e-01    4.508e-01    0.000e+00    9.000e-01  
  1.6800e-08    4.550e-01    4.512e-01    0.000e+00    9.000e-01  
  1.6900e-08    4.545e-01    4.517e-01    0.000e+00    9.000e-01  
  1.7000e-08    4.540e-01    4.521e-01    0.000e+00    9.000e-01  
  1.7100e-08    4.535e-01    4.526e-01    0.000e+00    9.000e-01  
  1.7200e-08    4.533e-01    4.528e-01    0.000e+00    9.000e-01  
  1.7300e-08    4.533e-01    4.529e-01    0.000e+00    9.000e-01  
  1.7400e-08    4.532e-01    4.529e-01    0.000e+00    9.000e-01  
  1.7500e-08    4.531e-01    4.530e-01    0.000e+00    9.000e-01  
  1.7600e-08    8.816e-01    3.560e-01    0.000e+00    9.000e-01  
  1.7700e-08    8.999e-01    5.459e-02    0.000e+00    9.000e-01  
  1.7800e-08    9.000e-01    5.444e-02    0.000e+00    9.000e-01  
  1.7900e-08    8.999e-01    5.422e-02    0.000e+00    9.000e-01  
  1.8000e-08    9.000e-01    5.434e-02    0.000e+00    9.000e-01  
  1.8100e-08    9.000e-01    5.432e-02    0.000e+00    9.000e-01  
  1.8200e-08    9.000e-01    5.424e-02    0.000e+00    9.000e-01  
  1.8300e-08    8.999e-01    5.420e-02    0.000e+00    9.000e-01  
  1.8400e-08    9.000e-01    5.425e-02    0.000e+00    9.000e-01  
  1.8500e-08    9.000e-01    5.430e-02    0.000e+00    9.000e-01  
  1.8600e-08    9.000e-01    5.435e-02    0.000e+00    9.000e-01  
  1.8700e-08    9.000e-01    5.433e-02    0.000e+00    9.000e-01  
  1.8800e-08    9.000e-01    5.430e-02    0.000e+00    9.000e-01  
  1.8900e-08    9.000e-01    5.427e-02    0.000e+00    9.000e-01  
  1.9000e-08    9.000e-01    5.424e-02    0.000e+00    9.000e-01  
  1.9100e-08    9.000e-01    5.421e-02    0.000e+00    9.000e-01  
  1.9200e-08    8.999e-01    5.418e-02    0.000e+00    9.000e-01  
  1.9300e-08    8.999e-01    5.419e-02    0.000e+00    9.000e-01  
  1.9400e-08    9.000e-01    5.421e-02    0.000e+00    9.000e-01  
  1.9500e-08    9.000e-01    5.424e-02    0.000e+00    9.000e-01  
  1.9600e-08    9.000e-01    5.426e-02    0.000e+00    9.000e-01  
  1.9700e-08    9.000e-01    5.428e-02    0.000e+00    9.000e-01  
  1.9800e-08    9.000e-01    5.430e-02    0.000e+00    9.000e-01  
  1.9900e-08    9.000e-01    5.432e-02    0.000e+00    9.000e-01  
  2.0000e-08    9.001e-01    5.434e-02    0.000e+00    9.000e-01  
  2.0100e-08    8.348e-01    5.573e-02    0.000e+00    9.000e-01  
  2.0200e-08    8.201e-01    6.417e-02    0.000e+00    9.000e-01  
  2.0300e-08    8.201e-01    6.418e-02    0.000e+00    9.000e-01  
  2.0400e-08    8.201e-01    6.422e-02    0.000e+00    9.000e-01  
  2.0500e-08    8.201e-01    6.418e-02    0.000e+00    9.000e-01  
  2.0600e-08    8.201e-01    6.413e-02    0.000e+00    9.000e-01  
  2.0700e-08    8.202e-01    6.411e-02    0.000e+00    9.000e-01  
  2.0800e-08    8.201e-01    6.413e-02    0.000e+00    9.000e-01  
  2.0900e-08    8.201e-01    6.415e-02    0.000e+00    9.000e-01  
  2.1000e-08    8.201e-01    6.417e-02    0.000e+00    9.000e-01  
  2.1100e-08    8.201e-01    6.419e-02    0.000e+00    9.000e-01  
  2.1200e-08    8.201e-01    6.421e-02    0.000e+00    9.000e-01  
  2.1300e-08    8.201e-01    6.423e-02    0.000e+00    9.000e-01  
  2.1400e-08    8.201e-01    6.424e-02    0.000e+00    9.000e-01  
  2.1500e-08    8.201e-01    6.423e-02    0.000e+00    9.000e-01  
  2.1600e-08    8.201e-01    6.422e-02    0.000e+00    9.000e-01  
  2.1700e-08    8.201e-01    6.420e-02    0.000e+00    9.000e-01  
  2.1800e-08    8.201e-01    6.419e-02    0.000e+00    9.000e-01  
  2.1900e-08    8.201e-01    6.418e-02    0.000e+00    9.000e-01  
  2.2000e-08    8.201e-01    6.416e-02    0.000e+00    9.000e-01  
  2.2100e-08    8.201e-01    6.415e-02    0.000e+00    9.000e-01  
  2.2200e-08    8.201e-01    6.414e-02    0.000e+00    9.000e-01  
  2.2300e-08    8.201e-01    6.412e-02    0.000e+00    9.000e-01  
  2.2400e-08    8.202e-01    6.411e-02    0.000e+00    9.000e-01  
  2.2500e-08    8.202e-01    6.410e-02    0.000e+00    9.000e-01  
  2.2600e-08    8.201e-01    6.417e-02    9.000e-01    0.000e+00  
  2.2700e-08    8.201e-01    6.415e-02    9.000e-01    0.000e+00  
  2.2800e-08    8.201e-01    6.420e-02    9.000e-01    0.000e+00  
  2.2900e-08    8.201e-01    6.417e-02    9.000e-01    0.000e+00  
  2.3000e-08    8.201e-01    6.415e-02    9.000e-01    0.000e+00  
  2.3100e-08    8.201e-01    6.416e-02    9.000e-01    0.000e+00  
  2.3200e-08    8.201e-01    6.417e-02    9.000e-01    0.000e+00  
  2.3300e-08    8.201e-01    6.418e-02    9.000e-01    0.000e+00  
  2.3400e-08    8.201e-01    6.419e-02    9.000e-01    0.000e+00  
  2.3500e-08    8.201e-01    6.420e-02    9.000e-01    0.000e+00  
  2.3600e-08    8.201e-01    6.420e-02    9.000e-01    0.000e+00  
  2.3700e-08    8.201e-01    6.420e-02    9.000e-01    0.000e+00  
  2.3800e-08    8.201e-01    6.419e-02    9.000e-01    0.000e+00  
  2.3900e-08    8.201e-01    6.419e-02    9.000e-01    0.000e+00  
  2.4000e-08    8.201e-01    6.419e-02    9.000e-01    0.000e+00  
  2.4100e-08    8.201e-01    6.418e-02    9.000e-01    0.000e+00  
  2.4200e-08    8.201e-01    6.418e-02    9.000e-01    0.000e+00  
  2.4300e-08    8.201e-01    6.417e-02    9.000e-01    0.000e+00  
  2.4400e-08    8.201e-01    6.417e-02    9.000e-01    0.000e+00  
  2.4500e-08    8.201e-01    6.417e-02    9.000e-01    0.000e+00  
  2.4600e-08    8.201e-01    6.416e-02    9.000e-01    0.000e+00  
  2.4700e-08    8.201e-01    6.416e-02    9.000e-01    0.000e+00  
  2.4800e-08    8.201e-01    6.415e-02    9.000e-01    0.000e+00  
  2.4900e-08    8.201e-01    6.415e-02    9.000e-01    0.000e+00  
  2.5000e-08    8.201e-01    6.415e-02    9.000e-01    0.000e+00  
  2.5100e-08    8.201e-01    6.411e-02    0.000e+00    9.000e-01  
  2.5200e-08    8.201e-01    6.418e-02    0.000e+00    9.000e-01  
  2.5300e-08    8.201e-01    6.418e-02    0.000e+00    9.000e-01  
  2.5400e-08    8.201e-01    6.418e-02    0.000e+00    9.000e-01  
  2.5500e-08    8.201e-01    6.417e-02    0.000e+00    9.000e-01  
  2.5600e-08    8.201e-01    6.417e-02    0.000e+00    9.000e-01  
  2.5700e-08    8.201e-01    6.417e-02    0.000e+00    9.000e-01  
  2.5800e-08    8.201e-01    6.417e-02    0.000e+00    9.000e-01  
  2.5900e-08    8.201e-01    6.417e-02    0.000e+00    9.000e-01  
  2.6000e-08    8.201e-01    6.417e-02    0.000e+00    9.000e-01  
  2.6100e-08    8.201e-01    6.417e-02    0.000e+00    9.000e-01  
  2.6200e-08    8.201e-01    6.417e-02    0.000e+00    9.000e-01  
  2.6300e-08    8.201e-01    6.417e-02    0.000e+00    9.000e-01  
  2.6400e-08    8.201e-01    6.417e-02    0.000e+00    9.000e-01  
  2.6500e-08    8.201e-01    6.418e-02    0.000e+00    9.000e-01  
  2.6600e-08    8.201e-01    6.418e-02    0.000e+00    9.000e-01  
  2.6700e-08    8.201e-01    6.418e-02    0.000e+00    9.000e-01  
  2.6800e-08    8.201e-01    6.417e-02    0.000e+00    9.000e-01  
  2.6900e-08    8.201e-01    6.417e-02    0.000e+00    9.000e-01  
  2.7000e-08    8.201e-01    6.417e-02    0.000e+00    9.000e-01  
  2.7100e-08    8.201e-01    6.417e-02    0.000e+00    9.000e-01  
  2.7200e-08    8.201e-01    6.417e-02    0.000e+00    9.000e-01  
  2.7300e-08    8.201e-01    6.417e-02    0.000e+00    9.000e-01  
  2.7400e-08    8.201e-01    6.417e-02    0.000e+00    9.000e-01  
  2.7500e-08    8.201e-01    6.417e-02    0.000e+00    9.000e-01  
  2.7600e-08    5.721e-02    3.031e-01    0.000e+00    9.000e-01  
  2.7700e-08    2.756e-02    8.990e-01    0.000e+00    9.000e-01  
  2.7800e-08    2.739e-02    8.997e-01    0.000e+00    9.000e-01  
  2.7900e-08    2.741e-02    8.999e-01    0.000e+00    9.000e-01  
  2.8000e-08    2.737e-02    8.999e-01    0.000e+00    9.000e-01  
  2.8100e-08    2.738e-02    8.999e-01    0.000e+00    9.000e-01  
  2.8200e-08    2.740e-02    9.000e-01    0.000e+00    9.000e-01  
  2.8300e-08    2.739e-02    9.000e-01    0.000e+00    9.000e-01  
  2.8400e-08    2.737e-02    8.999e-01    0.000e+00    9.000e-01  
  2.8500e-08    2.736e-02    8.999e-01    0.000e+00    9.000e-01  
  2.8600e-08    2.736e-02    8.999e-01    0.000e+00    9.000e-01  
  2.8700e-08    2.737e-02    9.000e-01    0.000e+00    9.000e-01  
  2.8800e-08    2.738e-02    9.000e-01    0.000e+00    9.000e-01  
  2.8900e-08    2.738e-02    9.000e-01    0.000e+00    9.000e-01  
  2.9000e-08    2.739e-02    9.000e-01    0.000e+00    9.000e-01  
  2.9100e-08    2.739e-02    9.000e-01    0.000e+00    9.000e-01  
  2.9200e-08    2.738e-02    9.000e-01    0.000e+00    9.000e-01  
  2.9300e-08    2.738e-02    9.000e-01    0.000e+00    9.000e-01  
  2.9400e-08    2.737e-02    9.000e-01    0.000e+00    9.000e-01  
  2.9500e-08    2.737e-02    9.000e-01    0.000e+00    9.000e-01  
  2.9600e-08    2.736e-02    9.000e-01    0.000e+00    9.000e-01  
  2.9700e-08    2.736e-02    8.999e-01    0.000e+00    9.000e-01  
  2.9800e-08    2.735e-02    8.999e-01    0.000e+00    9.000e-01  
  2.9900e-08    2.737e-02    9.000e-01    0.000e+00    9.000e-01  
  3.0000e-08    2.739e-02    9.000e-01    0.000e+00    9.000e-01  
  3.0100e-08    5.266e-02    9.000e-01    0.000e+00    9.000e-01  
  3.0200e-08    5.428e-02    9.000e-01    0.000e+00    9.000e-01  
  3.0300e-08    5.431e-02    9.000e-01    0.000e+00    9.000e-01  
  3.0400e-08    5.428e-02    9.000e-01    0.000e+00    9.000e-01  
  3.0500e-08    5.425e-02    9.000e-01    0.000e+00    9.000e-01  
  3.0600e-08    5.423e-02    9.000e-01    0.000e+00    9.000e-01  
  3.0700e-08    5.423e-02    9.000e-01    0.000e+00    9.000e-01  
  3.0800e-08    5.424e-02    9.000e-01    0.000e+00    9.000e-01  
  3.0900e-08    5.425e-02    9.000e-01    0.000e+00    9.000e-01  
  3.1000e-08    5.426e-02    9.000e-01    0.000e+00    9.000e-01  
  3.1100e-08    5.427e-02    9.000e-01    0.000e+00    9.000e-01  
  3.1200e-08    5.427e-02    9.000e-01    0.000e+00    9.000e-01  
  3.1300e-08    5.428e-02    9.000e-01    0.000e+00    9.000e-01  
  3.1400e-08    5.429e-02    9.000e-01    0.000e+00    9.000e-01  
  3.1500e-08    5.429e-02    9.000e-01    0.000e+00    9.000e-01  
  3.1600e-08    5.428e-02    9.000e-01    0.000e+00    9.000e-01  
  3.1700e-08    5.427e-02    9.000e-01    0.000e+00    9.000e-01  
  3.1800e-08    5.427e-02    9.000e-01    0.000e+00    9.000e-01  
  3.1900e-08    5.426e-02    9.000e-01    0.000e+00    9.000e-01  
  3.2000e-08    5.426e-02    9.000e-01    0.000e+00    9.000e-01  
  3.2100e-08    5.425e-02    9.000e-01    0.000e+00    9.000e-01  
  3.2200e-08    5.424e-02    9.000e-01    0.000e+00    9.000e-01  
  3.2300e-08    5.424e-02    9.000e-01    0.000e+00    9.000e-01  
  3.2400e-08    5.423e-02    9.000e-01    0.000e+00    9.000e-01  
  3.2500e-08    5.423e-02    9.000e-01    0.000e+00    9.000e-01  
  3.2600e-08    5.429e-02    8.996e-01    9.000e-01    0.000e+00  
  3.2700e-08    5.426e-02    9.000e-01    9.000e-01    0.000e+00  
  3.2800e-08    5.426e-02    9.000e-01    9.000e-01    0.000e+00  
  3.2900e-08    5.427e-02    9.000e-01    9.000e-01    0.000e+00  
  3.3000e-08    5.427e-02    9.000e-01    9.000e-01    0.000e+00  
  3.3100e-08    5.427e-02    9.000e-01    9.000e-01    0.000e+00  
  3.3200e-08    5.426e-02    9.000e-01    9.000e-01    0.000e+00  
  3.3300e-08    5.426e-02    9.000e-01    9.000e-01    0.000e+00  
  3.3400e-08    5.426e-02    9.000e-01    9.000e-01    0.000e+00  
  3.3500e-08    5.426e-02    9.000e-01    9.000e-01    0.000e+00  
  3.3600e-08    5.426e-02    9.000e-01    9.000e-01    0.000e+00  
  3.3700e-08    5.426e-02    9.000e-01    9.000e-01    0.000e+00  
  3.3800e-08    5.426e-02    9.000e-01    9.000e-01    0.000e+00  
  3.3900e-08    5.426e-02    9.000e-01    9.000e-01    0.000e+00  
  3.4000e-08    5.426e-02    9.000e-01    9.000e-01    0.000e+00  
  3.4100e-08    5.426e-02    9.000e-01    9.000e-01    0.000e+00  
  3.4200e-08    5.426e-02    9.000e-01    9.000e-01    0.000e+00  
  3.4300e-08    5.427e-02    9.000e-01    9.000e-01    0.000e+00  
  3.4400e-08    5.427e-02    9.000e-01    9.000e-01    0.000e+00  
  3.4500e-08    5.427e-02    9.000e-01    9.000e-01    0.000e+00  
  3.4600e-08    5.427e-02    9.000e-01    9.000e-01    0.000e+00  
  3.4700e-08    5.427e-02    9.000e-01    9.000e-01    0.000e+00  
  3.4800e-08    5.427e-02    9.000e-01    9.000e-01    0.000e+00  
  3.4900e-08    5.426e-02    9.000e-01    9.000e-01    0.000e+00  
  3.5000e-08    5.426e-02    9.000e-01    9.000e-01    0.000e+00  
  3.5100e-08    5.426e-02    9.000e-01    9.000e-01    0.000e+00  
  3.5200e-08    5.426e-02    9.000e-01    9.000e-01    0.000e+00  
  3.5300e-08    5.426e-02    9.000e-01    9.000e-01    0.000e+00  
  3.5400e-08    5.426e-02    9.000e-01    9.000e-01    0.000e+00  
  3.5500e-08    5.426e-02    9.000e-01    9.000e-01    0.000e+00  
  3.5600e-08    5.426e-02    9.000e-01    9.000e-01    0.000e+00  
  3.5700e-08    5.426e-02    9.000e-01    9.000e-01    0.000e+00  
  3.5800e-08    5.426e-02    9.000e-01    9.000e-01    0.000e+00  
  3.5900e-08    5.426e-02    9.000e-01    9.000e-01    0.000e+00  
  3.6000e-08    5.426e-02    9.000e-01    9.000e-01    0.000e+00  
  3.6100e-08    5.426e-02    9.000e-01    9.000e-01    0.000e+00  
  3.6200e-08    5.426e-02    9.000e-01    9.000e-01    0.000e+00  
  3.6300e-08    5.426e-02    9.000e-01    9.000e-01    0.000e+00  
  3.6400e-08    5.426e-02    9.000e-01    9.000e-01    0.000e+00  
  3.6500e-08    5.426e-02    9.000e-01    9.000e-01    0.000e+00  
  3.6600e-08    5.426e-02    9.000e-01    9.000e-01    0.000e+00  
  3.6700e-08    5.426e-02    9.000e-01    9.000e-01    0.000e+00  
  3.6800e-08    5.426e-02    9.000e-01    9.000e-01    0.000e+00  
  3.6900e-08    5.426e-02    9.000e-01    9.000e-01    0.000e+00  
  3.7000e-08    5.426e-02    9.000e-01    9.000e-01    0.000e+00  
  3.7100e-08    5.426e-02    9.000e-01    9.000e-01    0.000e+00  
  3.7200e-08    5.426e-02    9.000e-01    9.000e-01    0.000e+00  
  3.7300e-08    5.426e-02    9.000e-01    9.000e-01    0.000e+00  
  3.7400e-08    5.426e-02    9.000e-01    9.000e-01    0.000e+00  
  3.7500e-08    5.426e-02    9.000e-01    9.000e-01    0.000e+00  
  3.7600e-08    5.426e-02    9.000e-01    9.000e-01    0.000e+00  
  3.7700e-08    5.426e-02    9.000e-01    9.000e-01    0.000e+00  
  3.7800e-08    5.426e-02    9.000e-01    9.000e-01    0.000e+00  
  3.7900e-08    5.426e-02    9.000e-01    9.000e-01    0.000e+00  
  3.8000e-08    5.426e-02    9.000e-01    9.000e-01    0.000e+00  
  3.8100e-08    5.426e-02    9.000e-01    9.000e-01    0.000e+00  
  3.8200e-08    5.426e-02    9.000e-01    9.000e-01    0.000e+00  
  3.8300e-08    5.426e-02    9.000e-01    9.000e-01    0.000e+00  
  3.8400e-08    5.426e-02    9.000e-01    9.000e-01    0.000e+00  
  3.8500e-08    5.426e-02    9.000e-01    9.000e-01    0.000e+00  
  3.8600e-08    5.426e-02    9.000e-01    9.000e-01    0.000e+00  
  3.8700e-08    5.426e-02    9.000e-01    9.000e-01    0.000e+00  
  3.8800e-08    5.426e-02    9.000e-01    9.000e-01    0.000e+00  
  3.8900e-08    5.426e-02    9.000e-01    9.000e-01    0.000e+00  
  3.9000e-08    5.426e-02    9.000e-01    9.000e-01    0.000e+00  
  3.9100e-08    5.426e-02    9.000e-01    9.000e-01    0.000e+00  
  3.9200e-08    5.426e-02    9.000e-01    9.000e-01    0.000e+00  
  3.9300e-08    5.426e-02    9.000e-01    9.000e-01    0.000e+00  
  3.9400e-08    5.426e-02    9.000e-01    9.000e-01    0.000e+00  
  3.9500e-08    5.426e-02    9.000e-01    9.000e-01    0.000e+00  
  3.9600e-08    5.426e-02    9.000e-01    9.000e-01    0.000e+00  
  3.9700e-08    5.426e-02    9.000e-01    9.000e-01    0.000e+00  
  3.9800e-08    5.426e-02    9.000e-01    9.000e-01    0.000e+00  
  3.9900e-08    5.426e-02    9.000e-01    9.000e-01    0.000e+00  
  4.0000e-08    5.426e-02    9.000e-01    9.000e-01    0.000e+00  
y
x

        time    voltage    
                    rbl    
  0.0000e+00    7.746e-03  
  1.0000e-10    7.746e-03  
  2.0000e-10    7.746e-03  
  3.0000e-10    7.746e-03  
  4.0000e-10    7.746e-03  
  5.0000e-10    7.746e-03  
  6.0000e-10    7.746e-03  
  7.0000e-10    7.746e-03  
  8.0000e-10    7.746e-03  
  9.0000e-10    7.746e-03  
  1.0000e-09    7.746e-03  
  1.1000e-09    7.746e-03  
  1.2000e-09    7.746e-03  
  1.3000e-09    7.746e-03  
  1.4000e-09    7.746e-03  
  1.5000e-09    7.746e-03  
  1.6000e-09    7.746e-03  
  1.7000e-09    7.746e-03  
  1.8000e-09    7.746e-03  
  1.9000e-09    7.746e-03  
  2.0000e-09    7.746e-03  
  2.1000e-09    7.746e-03  
  2.2000e-09    7.746e-03  
  2.3000e-09    7.746e-03  
  2.4000e-09    7.746e-03  
  2.5000e-09    7.746e-03  
  2.6000e-09    7.746e-03  
  2.7000e-09    7.746e-03  
  2.8000e-09    7.746e-03  
  2.9000e-09    7.746e-03  
  3.0000e-09    7.746e-03  
  3.1000e-09    7.746e-03  
  3.2000e-09    7.746e-03  
  3.3000e-09    7.746e-03  
  3.4000e-09    7.746e-03  
  3.5000e-09    7.746e-03  
  3.6000e-09    7.746e-03  
  3.7000e-09    7.746e-03  
  3.8000e-09    7.746e-03  
  3.9000e-09    7.746e-03  
  4.0000e-09    7.746e-03  
  4.1000e-09    7.746e-03  
  4.2000e-09    7.746e-03  
  4.3000e-09    7.746e-03  
  4.4000e-09    7.746e-03  
  4.5000e-09    7.746e-03  
  4.6000e-09    7.746e-03  
  4.7000e-09    7.746e-03  
  4.8000e-09    7.746e-03  
  4.9000e-09    7.746e-03  
  5.0000e-09    7.746e-03  
  5.1000e-09    8.036e-03  
  5.2000e-09    1.254e-02  
  5.3000e-09    1.890e-02  
  5.4000e-09    2.490e-02  
  5.5000e-09    3.026e-02  
  5.6000e-09    3.546e-02  
  5.7000e-09    4.035e-02  
  5.8000e-09    4.525e-02  
  5.9000e-09    5.014e-02  
  6.0000e-09    5.508e-02  
  6.1000e-09    6.007e-02  
  6.2000e-09    6.505e-02  
  6.3000e-09    7.004e-02  
  6.4000e-09    7.502e-02  
  6.5000e-09    8.000e-02  
  6.6000e-09    8.492e-02  
  6.7000e-09    8.976e-02  
  6.8000e-09    9.461e-02  
  6.9000e-09    9.945e-02  
  7.0000e-09    1.043e-01  
  7.1000e-09    1.091e-01  
  7.2000e-09    1.140e-01  
  7.3000e-09    1.188e-01  
  7.4000e-09    1.237e-01  
  7.5000e-09    1.285e-01  
  7.6000e-09    1.324e-01  
  7.7000e-09    1.371e-01  
  7.8000e-09    1.435e-01  
  7.9000e-09    1.492e-01  
  8.0000e-09    1.543e-01  
  8.1000e-09    1.587e-01  
  8.2000e-09    1.631e-01  
  8.3000e-09    1.668e-01  
  8.4000e-09    1.704e-01  
  8.5000e-09    1.739e-01  
  8.6000e-09    1.775e-01  
  8.7000e-09    1.810e-01  
  8.8000e-09    1.840e-01  
  8.9000e-09    1.869e-01  
  9.0000e-09    1.898e-01  
  9.1000e-09    1.926e-01  
  9.2000e-09    1.955e-01  
  9.3000e-09    1.984e-01  
  9.4000e-09    2.012e-01  
  9.5000e-09    2.041e-01  
  9.6000e-09    2.070e-01  
  9.7000e-09    2.098e-01  
  9.8000e-09    2.123e-01  
  9.9000e-09    2.148e-01  
  1.0000e-08    2.173e-01  
  1.0100e-08    2.207e-01  
  1.0200e-08    2.226e-01  
  1.0300e-08    2.182e-01  
  1.0400e-08    2.127e-01  
  1.0500e-08    2.073e-01  
  1.0600e-08    2.032e-01  
  1.0700e-08    1.999e-01  
  1.0800e-08    1.967e-01  
  1.0900e-08    1.953e-01  
  1.1000e-08    1.949e-01  
  1.1100e-08    1.946e-01  
  1.1200e-08    1.943e-01  
  1.1300e-08    1.942e-01  
  1.1400e-08    1.959e-01  
  1.1500e-08    1.977e-01  
  1.1600e-08    1.995e-01  
  1.1700e-08    2.013e-01  
  1.1800e-08    2.030e-01  
  1.1900e-08    2.048e-01  
  1.2000e-08    2.066e-01  
  1.2100e-08    2.084e-01  
  1.2200e-08    2.107e-01  
  1.2300e-08    2.131e-01  
  1.2400e-08    2.156e-01  
  1.2500e-08    2.181e-01  
  1.2600e-08    4.792e-01  
  1.2700e-08    4.723e-01  
  1.2800e-08    4.748e-01  
  1.2900e-08    4.772e-01  
  1.3000e-08    4.795e-01  
  1.3100e-08    4.818e-01  
  1.3200e-08    4.841e-01  
  1.3300e-08    4.863e-01  
  1.3400e-08    4.885e-01  
  1.3500e-08    4.908e-01  
  1.3600e-08    4.929e-01  
  1.3700e-08    4.950e-01  
  1.3800e-08    4.970e-01  
  1.3900e-08    4.991e-01  
  1.4000e-08    5.011e-01  
  1.4100e-08    5.032e-01  
  1.4200e-08    5.052e-01  
  1.4300e-08    5.073e-01  
  1.4400e-08    5.093e-01  
  1.4500e-08    5.114e-01  
  1.4600e-08    5.134e-01  
  1.4700e-08    5.155e-01  
  1.4800e-08    5.175e-01  
  1.4900e-08    5.196e-01  
  1.5000e-08    5.216e-01  
  1.5100e-08    2.710e-01  
  1.5200e-08    2.706e-01  
  1.5300e-08    2.755e-01  
  1.5400e-08    2.815e-01  
  1.5500e-08    2.876e-01  
  1.5600e-08    2.928e-01  
  1.5700e-08    2.976e-01  
  1.5800e-08    3.023e-01  
  1.5900e-08    3.057e-01  
  1.6000e-08    3.084e-01  
  1.6100e-08    3.112e-01  
  1.6200e-08    3.139e-01  
  1.6300e-08    3.166e-01  
  1.6400e-08    3.182e-01  
  1.6500e-08    3.195e-01  
  1.6600e-08    3.209e-01  
  1.6700e-08    3.222e-01  
  1.6800e-08    3.235e-01  
  1.6900e-08    3.248e-01  
  1.7000e-08    3.262e-01  
  1.7100e-08    3.275e-01  
  1.7200e-08    3.284e-01  
  1.7300e-08    3.292e-01  
  1.7400e-08    3.300e-01  
  1.7500e-08    3.308e-01  
  1.7600e-08    3.167e-01  
  1.7700e-08    4.800e-01  
  1.7800e-08    4.799e-01  
  1.7900e-08    4.798e-01  
  1.8000e-08    4.797e-01  
  1.8100e-08    4.796e-01  
  1.8200e-08    4.794e-01  
  1.8300e-08    4.793e-01  
  1.8400e-08    4.792e-01  
  1.8500e-08    4.791e-01  
  1.8600e-08    4.790e-01  
  1.8700e-08    4.789e-01  
  1.8800e-08    4.787e-01  
  1.8900e-08    4.786e-01  
  1.9000e-08    4.785e-01  
  1.9100e-08    4.784e-01  
  1.9200e-08    4.782e-01  
  1.9300e-08    4.781e-01  
  1.9400e-08    4.780e-01  
  1.9500e-08    4.779e-01  
  1.9600e-08    4.778e-01  
  1.9700e-08    4.777e-01  
  1.9800e-08    4.776e-01  
  1.9900e-08    4.775e-01  
  2.0000e-08    4.773e-01  
  2.0100e-08    4.770e-01  
  2.0200e-08    4.771e-01  
  2.0300e-08    4.770e-01  
  2.0400e-08    4.769e-01  
  2.0500e-08    4.767e-01  
  2.0600e-08    4.766e-01  
  2.0700e-08    4.765e-01  
  2.0800e-08    4.764e-01  
  2.0900e-08    4.763e-01  
  2.1000e-08    4.762e-01  
  2.1100e-08    4.760e-01  
  2.1200e-08    4.759e-01  
  2.1300e-08    4.758e-01  
  2.1400e-08    4.757e-01  
  2.1500e-08    4.756e-01  
  2.1600e-08    4.755e-01  
  2.1700e-08    4.753e-01  
  2.1800e-08    4.752e-01  
  2.1900e-08    4.751e-01  
  2.2000e-08    4.750e-01  
  2.2100e-08    4.749e-01  
  2.2200e-08    4.748e-01  
  2.2300e-08    4.746e-01  
  2.2400e-08    4.745e-01  
  2.2500e-08    4.744e-01  
  2.2600e-08    8.873e-01  
  2.2700e-08    8.999e-01  
  2.2800e-08    9.000e-01  
  2.2900e-08    9.000e-01  
  2.3000e-08    8.999e-01  
  2.3100e-08    8.999e-01  
  2.3200e-08    9.000e-01  
  2.3300e-08    9.000e-01  
  2.3400e-08    9.000e-01  
  2.3500e-08    9.000e-01  
  2.3600e-08    9.000e-01  
  2.3700e-08    9.000e-01  
  2.3800e-08    9.000e-01  
  2.3900e-08    9.000e-01  
  2.4000e-08    9.000e-01  
  2.4100e-08    9.000e-01  
  2.4200e-08    9.000e-01  
  2.4300e-08    9.000e-01  
  2.4400e-08    9.000e-01  
  2.4500e-08    9.000e-01  
  2.4600e-08    9.000e-01  
  2.4700e-08    8.999e-01  
  2.4800e-08    8.999e-01  
  2.4900e-08    8.999e-01  
  2.5000e-08    8.999e-01  
  2.5100e-08    8.036e-01  
  2.5200e-08    8.021e-01  
  2.5300e-08    8.019e-01  
  2.5400e-08    8.017e-01  
  2.5500e-08    8.015e-01  
  2.5600e-08    8.013e-01  
  2.5700e-08    8.011e-01  
  2.5800e-08    8.009e-01  
  2.5900e-08    8.007e-01  
  2.6000e-08    8.005e-01  
  2.6100e-08    8.003e-01  
  2.6200e-08    8.001e-01  
  2.6300e-08    7.999e-01  
  2.6400e-08    7.997e-01  
  2.6500e-08    7.995e-01  
  2.6600e-08    7.993e-01  
  2.6700e-08    7.992e-01  
  2.6800e-08    7.990e-01  
  2.6900e-08    7.988e-01  
  2.7000e-08    7.986e-01  
  2.7100e-08    7.984e-01  
  2.7200e-08    7.982e-01  
  2.7300e-08    7.980e-01  
  2.7400e-08    7.978e-01  
  2.7500e-08    7.976e-01  
  2.7600e-08    8.166e-01  
  2.7700e-08    2.289e-01  
  2.7800e-08    2.280e-01  
  2.7900e-08    2.284e-01  
  2.8000e-08    2.279e-01  
  2.8100e-08    2.280e-01  
  2.8200e-08    2.283e-01  
  2.8300e-08    2.281e-01  
  2.8400e-08    2.279e-01  
  2.8500e-08    2.276e-01  
  2.8600e-08    2.276e-01  
  2.8700e-08    2.276e-01  
  2.8800e-08    2.277e-01  
  2.8900e-08    2.278e-01  
  2.9000e-08    2.278e-01  
  2.9100e-08    2.278e-01  
  2.9200e-08    2.276e-01  
  2.9300e-08    2.275e-01  
  2.9400e-08    2.274e-01  
  2.9500e-08    2.272e-01  
  2.9600e-08    2.271e-01  
  2.9700e-08    2.270e-01  
  2.9800e-08    2.269e-01  
  2.9900e-08    2.270e-01  
  3.0000e-08    2.273e-01  
  3.0100e-08    2.270e-01  
  3.0200e-08    2.269e-01  
  3.0300e-08    2.268e-01  
  3.0400e-08    2.268e-01  
  3.0500e-08    2.267e-01  
  3.0600e-08    2.267e-01  
  3.0700e-08    2.266e-01  
  3.0800e-08    2.266e-01  
  3.0900e-08    2.265e-01  
  3.1000e-08    2.264e-01  
  3.1100e-08    2.264e-01  
  3.1200e-08    2.263e-01  
  3.1300e-08    2.263e-01  
  3.1400e-08    2.262e-01  
  3.1500e-08    2.262e-01  
  3.1600e-08    2.261e-01  
  3.1700e-08    2.261e-01  
  3.1800e-08    2.260e-01  
  3.1900e-08    2.259e-01  
  3.2000e-08    2.259e-01  
  3.2100e-08    2.258e-01  
  3.2200e-08    2.258e-01  
  3.2300e-08    2.257e-01  
  3.2400e-08    2.257e-01  
  3.2500e-08    2.256e-01  
  3.2600e-08    6.482e-02  
  3.2700e-08    5.423e-02  
  3.2800e-08    5.426e-02  
  3.2900e-08    5.422e-02  
  3.3000e-08    5.421e-02  
  3.3100e-08    5.423e-02  
  3.3200e-08    5.425e-02  
  3.3300e-08    5.427e-02  
  3.3400e-08    5.428e-02  
  3.3500e-08    5.428e-02  
  3.3600e-08    5.428e-02  
  3.3700e-08    5.427e-02  
  3.3800e-08    5.426e-02  
  3.3900e-08    5.426e-02  
  3.4000e-08    5.425e-02  
  3.4100e-08    5.424e-02  
  3.4200e-08    5.423e-02  
  3.4300e-08    5.423e-02  
  3.4400e-08    5.422e-02  
  3.4500e-08    5.421e-02  
  3.4600e-08    5.421e-02  
  3.4700e-08    5.420e-02  
  3.4800e-08    5.421e-02  
  3.4900e-08    5.424e-02  
  3.5000e-08    5.428e-02  
  3.5100e-08    5.427e-02  
  3.5200e-08    5.426e-02  
  3.5300e-08    5.425e-02  
  3.5400e-08    5.425e-02  
  3.5500e-08    5.425e-02  
  3.5600e-08    5.425e-02  
  3.5700e-08    5.424e-02  
  3.5800e-08    5.424e-02  
  3.5900e-08    5.424e-02  
  3.6000e-08    5.424e-02  
  3.6100e-08    5.424e-02  
  3.6200e-08    5.424e-02  
  3.6300e-08    5.424e-02  
  3.6400e-08    5.424e-02  
  3.6500e-08    5.424e-02  
  3.6600e-08    5.424e-02  
  3.6700e-08    5.424e-02  
  3.6800e-08    5.424e-02  
  3.6900e-08    5.424e-02  
  3.7000e-08    5.424e-02  
  3.7100e-08    5.424e-02  
  3.7200e-08    5.424e-02  
  3.7300e-08    5.424e-02  
  3.7400e-08    5.424e-02  
  3.7500e-08    5.424e-02  
  3.7600e-08    5.424e-02  
  3.7700e-08    5.424e-02  
  3.7800e-08    5.424e-02  
  3.7900e-08    5.424e-02  
  3.8000e-08    5.424e-02  
  3.8100e-08    5.424e-02  
  3.8200e-08    5.424e-02  
  3.8300e-08    5.424e-02  
  3.8400e-08    5.424e-02  
  3.8500e-08    5.424e-02  
  3.8600e-08    5.424e-02  
  3.8700e-08    5.424e-02  
  3.8800e-08    5.424e-02  
  3.8900e-08    5.424e-02  
  3.9000e-08    5.424e-02  
  3.9100e-08    5.424e-02  
  3.9200e-08    5.424e-02  
  3.9300e-08    5.424e-02  
  3.9400e-08    5.424e-02  
  3.9500e-08    5.424e-02  
  3.9600e-08    5.424e-02  
  3.9700e-08    5.424e-02  
  3.9800e-08    5.424e-02  
  3.9900e-08    5.424e-02  
  4.0000e-08    5.424e-02  
y
-----------------------------------------------
x

        time    current    
                    vdd    
  0.0000e+00   -1.313e-08  
  1.0000e-10   -1.313e-08  
  2.0000e-10   -1.313e-08  
  3.0000e-10   -1.313e-08  
  4.0000e-10   -1.313e-08  
  5.0000e-10   -1.313e-08  
  6.0000e-10   -1.313e-08  
  7.0000e-10   -1.313e-08  
  8.0000e-10   -1.313e-08  
  9.0000e-10   -1.313e-08  
  1.0000e-09   -1.313e-08  
  1.1000e-09   -1.313e-08  
  1.2000e-09   -1.313e-08  
  1.3000e-09   -1.313e-08  
  1.4000e-09   -1.313e-08  
  1.5000e-09   -1.313e-08  
  1.6000e-09   -1.313e-08  
  1.7000e-09   -1.313e-08  
  1.8000e-09   -1.313e-08  
  1.9000e-09   -1.313e-08  
  2.0000e-09   -1.313e-08  
  2.1000e-09   -1.313e-08  
  2.2000e-09   -1.313e-08  
  2.3000e-09   -1.313e-08  
  2.4000e-09   -1.313e-08  
  2.5000e-09   -1.313e-08  
  2.6000e-09   -1.313e-08  
  2.7000e-09   -1.313e-08  
  2.8000e-09   -1.313e-08  
  2.9000e-09   -1.313e-08  
  3.0000e-09   -1.313e-08  
  3.1000e-09   -1.313e-08  
  3.2000e-09   -1.313e-08  
  3.3000e-09   -1.313e-08  
  3.4000e-09   -1.313e-08  
  3.5000e-09   -1.313e-08  
  3.6000e-09   -1.313e-08  
  3.7000e-09   -1.313e-08  
  3.8000e-09   -1.313e-08  
  3.9000e-09   -1.313e-08  
  4.0000e-09   -1.313e-08  
  4.1000e-09   -1.313e-08  
  4.2000e-09   -1.313e-08  
  4.3000e-09   -1.313e-08  
  4.4000e-09   -1.313e-08  
  4.5000e-09   -1.313e-08  
  4.6000e-09   -1.313e-08  
  4.7000e-09   -1.313e-08  
  4.8000e-09   -1.313e-08  
  4.9000e-09   -1.313e-08  
  5.0000e-09   -1.313e-08  
  5.1000e-09   -7.010e-09  
  5.2000e-09   -1.119e-08  
  5.3000e-09   -1.093e-08  
  5.4000e-09   -1.071e-08  
  5.5000e-09   -1.056e-08  
  5.6000e-09   -1.044e-08  
  5.7000e-09   -1.037e-08  
  5.8000e-09   -1.029e-08  
  5.9000e-09   -1.022e-08  
  6.0000e-09   -1.017e-08  
  6.1000e-09   -1.014e-08  
  6.2000e-09   -1.012e-08  
  6.3000e-09   -1.009e-08  
  6.4000e-09   -1.007e-08  
  6.5000e-09   -1.004e-08  
  6.6000e-09   -1.003e-08  
  6.7000e-09   -1.002e-08  
  6.8000e-09   -1.001e-08  
  6.9000e-09   -9.995e-09  
  7.0000e-09   -9.985e-09  
  7.1000e-09   -9.975e-09  
  7.2000e-09   -9.965e-09  
  7.3000e-09   -9.955e-09  
  7.4000e-09   -9.945e-09  
  7.5000e-09   -9.935e-09  
  7.6000e-09   -7.410e-09  
  7.7000e-09   -1.102e-08  
  7.8000e-09   -1.052e-08  
  7.9000e-09   -1.030e-08  
  8.0000e-09   -1.017e-08  
  8.1000e-09   -1.010e-08  
  8.2000e-09   -1.003e-08  
  8.3000e-09   -1.000e-08  
  8.4000e-09   -9.981e-09  
  8.5000e-09   -9.961e-09  
  8.6000e-09   -9.940e-09  
  8.7000e-09   -9.920e-09  
  8.8000e-09   -9.912e-09  
  8.9000e-09   -9.908e-09  
  9.0000e-09   -9.905e-09  
  9.1000e-09   -9.901e-09  
  9.2000e-09   -9.897e-09  
  9.3000e-09   -9.894e-09  
  9.4000e-09   -9.890e-09  
  9.5000e-09   -9.886e-09  
  9.6000e-09   -9.882e-09  
  9.7000e-09   -9.879e-09  
  9.8000e-09   -9.874e-09  
  9.9000e-09   -9.870e-09  
  1.0000e-08   -9.866e-09  
  1.0100e-08   -2.776e-08  
  1.0200e-08   -1.195e-08  
  1.0300e-08   -1.068e-08  
  1.0400e-08   -1.014e-08  
  1.0500e-08   -9.954e-09  
  1.0600e-08   -9.862e-09  
  1.0700e-08   -9.825e-09  
  1.0800e-08   -9.787e-09  
  1.0900e-08   -9.778e-09  
  1.1000e-08   -9.786e-09  
  1.1100e-08   -9.793e-09  
  1.1200e-08   -9.801e-09  
  1.1300e-08   -9.808e-09  
  1.1400e-08   -9.809e-09  
  1.1500e-08   -9.810e-09  
  1.1600e-08   -9.811e-09  
  1.1700e-08   -9.812e-09  
  1.1800e-08   -9.814e-09  
  1.1900e-08   -9.815e-09  
  1.2000e-08   -9.816e-09  
  1.2100e-08   -9.817e-09  
  1.2200e-08   -9.816e-09  
  1.2300e-08   -9.815e-09  
  1.2400e-08   -9.813e-09  
  1.2500e-08   -9.812e-09  
  1.2600e-08   -7.993e-09  
  1.2700e-08   -9.901e-09  
  1.2800e-08   -9.893e-09  
  1.2900e-08   -9.892e-09  
  1.3000e-08   -9.862e-09  
  1.3100e-08   -9.855e-09  
  1.3200e-08   -9.861e-09  
  1.3300e-08   -9.867e-09  
  1.3400e-08   -9.874e-09  
  1.3500e-08   -9.880e-09  
  1.3600e-08   -9.884e-09  
  1.3700e-08   -9.878e-09  
  1.3800e-08   -9.872e-09  
  1.3900e-08   -9.866e-09  
  1.4000e-08   -9.860e-09  
  1.4100e-08   -9.854e-09  
  1.4200e-08   -9.848e-09  
  1.4300e-08   -9.842e-09  
  1.4400e-08   -9.836e-09  
  1.4500e-08   -9.830e-09  
  1.4600e-08   -9.825e-09  
  1.4700e-08   -9.819e-09  
  1.4800e-08   -9.813e-09  
  1.4900e-08   -9.807e-09  
  1.5000e-08   -9.801e-09  
  1.5100e-08    1.438e-09  
  1.5200e-08   -8.939e-09  
  1.5300e-08   -9.415e-09  
  1.5400e-08   -9.648e-09  
  1.5500e-08   -9.726e-09  
  1.5600e-08   -9.748e-09  
  1.5700e-08   -9.738e-09  
  1.5800e-08   -9.728e-09  
  1.5900e-08   -9.713e-09  
  1.6000e-08   -9.696e-09  
  1.6100e-08   -9.678e-09  
  1.6200e-08   -9.661e-09  
  1.6300e-08   -9.643e-09  
  1.6400e-08   -9.639e-09  
  1.6500e-08   -9.638e-09  
  1.6600e-08   -9.637e-09  
  1.6700e-08   -9.636e-09  
  1.6800e-08   -9.635e-09  
  1.6900e-08   -9.634e-09  
  1.7000e-08   -9.633e-09  
  1.7100e-08   -9.631e-09  
  1.7200e-08   -9.628e-09  
  1.7300e-08   -9.623e-09  
  1.7400e-08   -9.618e-09  
  1.7500e-08   -9.613e-09  
  1.7600e-08   -4.667e-08  
  1.7700e-08   -2.012e-07  
  1.7800e-08   -2.007e-07  
  1.7900e-08   -2.037e-07  
  1.8000e-08   -2.014e-07  
  1.8100e-08   -2.015e-07  
  1.8200e-08   -2.029e-07  
  1.8300e-08   -2.035e-07  
  1.8400e-08   -2.026e-07  
  1.8500e-08   -2.017e-07  
  1.8600e-08   -2.008e-07  
  1.8700e-08   -2.011e-07  
  1.8800e-08   -2.016e-07  
  1.8900e-08   -2.022e-07  
  1.9000e-08   -2.027e-07  
  1.9100e-08   -2.032e-07  
  1.9200e-08   -2.038e-07  
  1.9300e-08   -2.035e-07  
  1.9400e-08   -2.031e-07  
  1.9500e-08   -2.027e-07  
  1.9600e-08   -2.023e-07  
  1.9700e-08   -2.019e-07  
  1.9800e-08   -2.014e-07  
  1.9900e-08   -2.010e-07  
  2.0000e-08   -2.006e-07  
  2.0100e-08   -3.953e-07  
  2.0200e-08   -3.389e-07  
  2.0300e-08   -3.389e-07  
  2.0400e-08   -3.387e-07  
  2.0500e-08   -3.389e-07  
  2.0600e-08   -3.391e-07  
  2.0700e-08   -3.392e-07  
  2.0800e-08   -3.391e-07  
  2.0900e-08   -3.390e-07  
  2.1000e-08   -3.389e-07  
  2.1100e-08   -3.388e-07  
  2.1200e-08   -3.387e-07  
  2.1300e-08   -3.386e-07  
  2.1400e-08   -3.386e-07  
  2.1500e-08   -3.387e-07  
  2.1600e-08   -3.387e-07  
  2.1700e-08   -3.388e-07  
  2.1800e-08   -3.388e-07  
  2.1900e-08   -3.389e-07  
  2.2000e-08   -3.389e-07  
  2.2100e-08   -3.390e-07  
  2.2200e-08   -3.391e-07  
  2.2300e-08   -3.391e-07  
  2.2400e-08   -3.392e-07  
  2.2500e-08   -3.392e-07  
  2.2600e-08   -3.666e-07  
  2.2700e-08   -3.390e-07  
  2.2800e-08   -3.388e-07  
  2.2900e-08   -3.389e-07  
  2.3000e-08   -3.391e-07  
  2.3100e-08   -3.390e-07  
  2.3200e-08   -3.390e-07  
  2.3300e-08   -3.389e-07  
  2.3400e-08   -3.388e-07  
  2.3500e-08   -3.388e-07  
  2.3600e-08   -3.388e-07  
  2.3700e-08   -3.388e-07  
  2.3800e-08   -3.388e-07  
  2.3900e-08   -3.388e-07  
  2.4000e-08   -3.388e-07  
  2.4100e-08   -3.389e-07  
  2.4200e-08   -3.389e-07  
  2.4300e-08   -3.389e-07  
  2.4400e-08   -3.389e-07  
  2.4500e-08   -3.390e-07  
  2.4600e-08   -3.390e-07  
  2.4700e-08   -3.390e-07  
  2.4800e-08   -3.390e-07  
  2.4900e-08   -3.391e-07  
  2.5000e-08   -3.391e-07  
  2.5100e-08   -3.330e-07  
  2.5200e-08   -3.390e-07  
  2.5300e-08   -3.389e-07  
  2.5400e-08   -3.389e-07  
  2.5500e-08   -3.389e-07  
  2.5600e-08   -3.389e-07  
  2.5700e-08   -3.389e-07  
  2.5800e-08   -3.389e-07  
  2.5900e-08   -3.389e-07  
  2.6000e-08   -3.389e-07  
  2.6100e-08   -3.389e-07  
  2.6200e-08   -3.389e-07  
  2.6300e-08   -3.389e-07  
  2.6400e-08   -3.389e-07  
  2.6500e-08   -3.389e-07  
  2.6600e-08   -3.389e-07  
  2.6700e-08   -3.389e-07  
  2.6800e-08   -3.389e-07  
  2.6900e-08   -3.389e-07  
  2.7000e-08   -3.389e-07  
  2.7100e-08   -3.389e-07  
  2.7200e-08   -3.389e-07  
  2.7300e-08   -3.389e-07  
  2.7400e-08   -3.389e-07  
  2.7500e-08   -3.389e-07  
  2.7600e-08   -5.936e-07  
  2.7700e-08   -6.162e-07  
  2.7800e-08   -6.182e-07  
  2.7900e-08   -6.148e-07  
  2.8000e-08   -6.172e-07  
  2.8100e-08   -6.162e-07  
  2.8200e-08   -6.144e-07  
  2.8300e-08   -6.150e-07  
  2.8400e-08   -6.161e-07  
  2.8500e-08   -6.172e-07  
  2.8600e-08   -6.170e-07  
  2.8700e-08   -6.163e-07  
  2.8800e-08   -6.156e-07  
  2.8900e-08   -6.149e-07  
  2.9000e-08   -6.142e-07  
  2.9100e-08   -6.144e-07  
  2.9200e-08   -6.148e-07  
  2.9300e-08   -6.152e-07  
  2.9400e-08   -6.156e-07  
  2.9500e-08   -6.160e-07  
  2.9600e-08   -6.164e-07  
  2.9700e-08   -6.168e-07  
  2.9800e-08   -6.172e-07  
  2.9900e-08   -6.162e-07  
  3.0000e-08   -6.142e-07  
  3.0100e-08   -4.138e-07  
  3.0200e-08   -4.045e-07  
  3.0300e-08   -4.042e-07  
  3.0400e-08   -4.043e-07  
  3.0500e-08   -4.044e-07  
  3.0600e-08   -4.045e-07  
  3.0700e-08   -4.044e-07  
  3.0800e-08   -4.044e-07  
  3.0900e-08   -4.043e-07  
  3.1000e-08   -4.043e-07  
  3.1100e-08   -4.042e-07  
  3.1200e-08   -4.042e-07  
  3.1300e-08   -4.041e-07  
  3.1400e-08   -4.041e-07  
  3.1500e-08   -4.041e-07  
  3.1600e-08   -4.042e-07  
  3.1700e-08   -4.042e-07  
  3.1800e-08   -4.042e-07  
  3.1900e-08   -4.043e-07  
  3.2000e-08   -4.043e-07  
  3.2100e-08   -4.043e-07  
  3.2200e-08   -4.044e-07  
  3.2300e-08   -4.044e-07  
  3.2400e-08   -4.044e-07  
  3.2500e-08   -4.045e-07  
  3.2600e-08   -3.893e-07  
  3.2700e-08   -4.043e-07  
  3.2800e-08   -4.042e-07  
  3.2900e-08   -4.044e-07  
  3.3000e-08   -4.045e-07  
  3.3100e-08   -4.044e-07  
  3.3200e-08   -4.043e-07  
  3.3300e-08   -4.042e-07  
  3.3400e-08   -4.041e-07  
  3.3500e-08   -4.041e-07  
  3.3600e-08   -4.041e-07  
  3.3700e-08   -4.042e-07  
  3.3800e-08   -4.042e-07  
  3.3900e-08   -4.042e-07  
  3.4000e-08   -4.043e-07  
  3.4100e-08   -4.043e-07  
  3.4200e-08   -4.043e-07  
  3.4300e-08   -4.044e-07  
  3.4400e-08   -4.044e-07  
  3.4500e-08   -4.044e-07  
  3.4600e-08   -4.045e-07  
  3.4700e-08   -4.045e-07  
  3.4800e-08   -4.044e-07  
  3.4900e-08   -4.043e-07  
  3.5000e-08   -4.041e-07  
  3.5100e-08   -4.041e-07  
  3.5200e-08   -4.042e-07  
  3.5300e-08   -4.043e-07  
  3.5400e-08   -4.043e-07  
  3.5500e-08   -4.043e-07  
  3.5600e-08   -4.043e-07  
  3.5700e-08   -4.043e-07  
  3.5800e-08   -4.043e-07  
  3.5900e-08   -4.043e-07  
  3.6000e-08   -4.043e-07  
  3.6100e-08   -4.043e-07  
  3.6200e-08   -4.043e-07  
  3.6300e-08   -4.043e-07  
  3.6400e-08   -4.043e-07  
  3.6500e-08   -4.043e-07  
  3.6600e-08   -4.043e-07  
  3.6700e-08   -4.043e-07  
  3.6800e-08   -4.043e-07  
  3.6900e-08   -4.043e-07  
  3.7000e-08   -4.043e-07  
  3.7100e-08   -4.043e-07  
  3.7200e-08   -4.043e-07  
  3.7300e-08   -4.043e-07  
  3.7400e-08   -4.043e-07  
  3.7500e-08   -4.043e-07  
  3.7600e-08   -4.043e-07  
  3.7700e-08   -4.043e-07  
  3.7800e-08   -4.043e-07  
  3.7900e-08   -4.043e-07  
  3.8000e-08   -4.043e-07  
  3.8100e-08   -4.043e-07  
  3.8200e-08   -4.043e-07  
  3.8300e-08   -4.043e-07  
  3.8400e-08   -4.043e-07  
  3.8500e-08   -4.043e-07  
  3.8600e-08   -4.043e-07  
  3.8700e-08   -4.043e-07  
  3.8800e-08   -4.043e-07  
  3.8900e-08   -4.043e-07  
  3.9000e-08   -4.043e-07  
  3.9100e-08   -4.043e-07  
  3.9200e-08   -4.043e-07  
  3.9300e-08   -4.043e-07  
  3.9400e-08   -4.043e-07  
  3.9500e-08   -4.043e-07  
  3.9600e-08   -4.043e-07  
  3.9700e-08   -4.043e-07  
  3.9800e-08   -4.043e-07  
  3.9900e-08   -4.043e-07  
  4.0000e-08   -4.043e-07  
y
-----------------------------------------------

          ***** job concluded
1****** HSPICE -- H-2013.03 64-BIT (Mar  7 2013) win64 ******                   
 ******  
 'inverter'

  ******  job statistics summary tnom=  25.000 temp=  25.000 *****

  ******  HSPICE Threads Information  ******

  Command Line Threads Count :     1
  Available CPU Count        :     4
  Actual Threads Count       :     1


  ******  Circuit Statistics  ******
  # nodes       =     519 # elements   =    1176
  # resistors   =     216 # capacitors =     522 # inductors   =       0
  # mutual_inds =       0 # vccs       =     144 # vcvs        =     252
  # cccs        =       0 # ccvs       =       0 # volt_srcs   =      42
  # curr_srcs   =       0 # diodes     =       0 # bjts        =       0
  # jfets       =       0 # mosfets    =       0 # U elements  =       0
  # T elements  =       0 # W elements =       0 # B elements  =       0
  # S elements  =       0 # P elements =       0 # va device   =       0
  # vector_srcs =       0 # N elements =       0


  ******  Runtime Statistics (seconds)  ******

  analysis           time    # points   tot. iter  conv.iter
  op point           0.52           1          21
  transient         18.58         401         886         241 rev=        21
  readin             0.03
  errchk             0.28
  setup              0.00
  output             0.00


           peak memory used         52.80 megabytes
           total cpu time           19.41 seconds
           total elapsed time       19.43 seconds
           job started at     19:15:14 02/27/2018
           job ended   at     19:15:34 02/27/2018


  lic: Release hspice token(s) 
 lic: total license checkout elapse time:        0.02(s)
