 ****** HSPICE -- H-2013.03 64-BIT (Mar  7 2013) win64 ******                   
  Copyright (C) 2013 Synopsys, Inc. All Rights Reserved.                        
  Unpublished-rights reserved under US copyright laws.
  This program is protected by law and is subject to the
  terms and conditions of the license agreement from Synopsys.
  Use of this program is your acceptance to be bound by the
  license agreement. HSPICE is the trademark of Synopsys, Inc.
  Input File: sram10nmtry.sp                                                    
  Command line options: -i sram10nmtry.sp -o sram10nmtry.lis
  lic:  
  lic: FLEXlm: v10.9.8 
  lic: USER:   Dell                 HOSTNAME: DESKTOP-O3DHVG1 
  lic: HOSTID: "28f10e041fd4 00a0c6000017 a0d37a293ca4 a0d37a293ca5" PID:      2
 564 
  lic: Using FLEXlm license file: 
  lic: C:\synopsys\Hspice_H-2013.03\lic.dat\lic.lic 
  lic: Checkout 1 hspice 
  lic: License/Maintenance for hspice will expire on 31-dec-2019/2019.12 
  lic: NODE LOCKED license on hostid "28f10e041fd4 00a0c6000017 a0d37a293ca4 a0d
 37a293ca5" 
  lic:   
 Init: read install configuration file: C:\synopsys\Hspice_H-2013.03\meta.cfg
 scientific notation:
 a=10**-18  f=10**-15  p=10**-12  n=10**-9  u=10**-6
 m=10**-3   k=10**3    x=10**6    g=10**9 
1****** HSPICE -- H-2013.03 64-BIT (Mar  7 2013) win64 ******                   
 ******  
 'inverter'

  ******  circuit name directory
 circuit number to circuit name directory
   number circuitname                     definition         multiplier
        0 main circuit


 circuit parameter definitions
  parameter          =  value 

     0:temp                                                    = 2.700e+01      
     0:m_cnt                                                   = 1.000e+00      
     0:wg                                                      = 4.000e-09      
     0:cb                                                      = 4.000e-11      
     0:lg                                                      = 1.000e-08      
     0:lgef                                                    = 1.000e-07      
     0:vfn                                                     = 0.000e+00      
     0:vfp                                                     = 0.000e+00      
     0:m                                                       = 0.000e+00      
     0:n                                                       = 1.900e+01      
     0:hox                                                     = 4.000e-09      
     1:tox                                                     = 4.000e-09      
     1:csub                                                    = 4.000e-11      
     1:pitch                                                   = 2.000e-08      
     1:n1                                                      = 0.000e+00      
     1:n2                                                      = 1.900e+01      
     1:vfbp                                                    = 0.000e+00      
     1:kgate                                                   = 1.600e+01      
     1:dout                                                    = 0.000e+00      
     1:sout                                                    = 0.000e+00      
     1:tubes                                                   = 1.000e+00      
     1:lch                                                     = 1.000e-08      
     1:lgeff                                                   = 1.000e-07      
     1:lss                                                     = 3.200e-08      
     1:ldd                                                     = 3.200e-08      
     2:tox                                                     = 4.000e-09      
     2:csub                                                    = 4.000e-11      
     2:pitch                                                   = 2.000e-08      
     2:n1                                                      = 0.000e+00      
     2:n2                                                      = 1.000e+01      
     2:vfbp                                                    = 0.000e+00      
     2:kgate                                                   = 1.600e+01      
     2:dout                                                    = 0.000e+00      
     2:sout                                                    = 0.000e+00      
     2:tubes                                                   = 1.000e+00      
     2:lch                                                     = 1.000e-08      
     2:lgeff                                                   = 1.000e-07      
     2:lss                                                     = 3.200e-08      
     2:ldd                                                     = 3.200e-08      
     3:tox                                                     = 4.000e-09      
     3:csub                                                    = 4.000e-11      
     3:pitch                                                   = 2.000e-08      
     3:n1                                                      = 0.000e+00      
     3:n2                                                      = 1.300e+01      
     3:vfbp                                                    = 0.000e+00      
     3:kgate                                                   = 1.600e+01      
     3:dout                                                    = 0.000e+00      
     3:sout                                                    = 0.000e+00      
     3:tubes                                                   = 1.000e+00      
     3:lch                                                     = 1.000e-08      
     3:lgeff                                                   = 1.000e-07      
     3:lss                                                     = 3.200e-08      
     3:ldd                                                     = 3.200e-08      
     4:tox                                                     = 4.000e-09      
     4:csub                                                    = 4.000e-11      
     4:vfbn                                                    = 0.000e+00      
     4:pitch                                                   = 2.000e-08      
     4:n1                                                      = 0.000e+00      
     4:n2                                                      = 1.300e+01      
     4:kgate                                                   = 1.600e+01      
     4:dout                                                    = 0.000e+00      
     4:sout                                                    = 0.000e+00      
     4:tubes                                                   = 1.000e+00      
     4:lch                                                     = 1.000e-08      
     4:lgeff                                                   = 1.000e-07      
     4:lss                                                     = 3.200e-08      
     4:ldd                                                     = 3.200e-08      
     5:tox                                                     = 4.000e-09      
     5:csub                                                    = 4.000e-11      
     5:vfbn                                                    = 0.000e+00      
     5:pitch                                                   = 2.000e-08      
     5:n1                                                      = 0.000e+00      
     5:n2                                                      = 1.900e+01      
     5:kgate                                                   = 1.600e+01      
     5:dout                                                    = 0.000e+00      
     5:sout                                                    = 0.000e+00      
     5:tubes                                                   = 1.000e+00      
     5:lch                                                     = 1.000e-08      
     5:lgeff                                                   = 1.000e-07      
     5:lss                                                     = 3.200e-08      
     5:ldd                                                     = 3.200e-08      
     6:tox                                                     = 4.000e-09      
     6:csub                                                    = 4.000e-11      
     6:vfbn                                                    = 0.000e+00      
     6:pitch                                                   = 2.000e-08      
     6:n1                                                      = 0.000e+00      
     6:n2                                                      = 1.000e+01      
     6:kgate                                                   = 1.600e+01      
     6:dout                                                    = 0.000e+00      
     6:sout                                                    = 0.000e+00      
     6:tubes                                                   = 1.000e+00      
     6:lch                                                     = 1.000e-08      
     6:lgeff                                                   = 1.000e-07      
     6:lss                                                     = 3.200e-08      
     6:ldd                                                     = 3.200e-08      




 constants  - tnom         kt           vt           gapsi        ni
            2.9815e+02   4.1163e-21   2.5692e-02   1.1156e+00   1.2565e+16 
  **info** (sram10nmtry.sp:123) DC voltage reset to initial transient source value              in source        0:vrwl                new dc=  0.0000D+00

 **warning**  associated with encrypted block(s) were suppressed due to encrypted content

1****** HSPICE -- H-2013.03 64-BIT (Mar  7 2013) win64 ******                   
 ******  
 'inverter'

  ******  circuit element summary tnom=  25.000 temp=  25.000 *****


 **** independent sources

     name         node1        node2      dc volt    ac mag    ac phase    type
  vdd  vdd               0                  9.000e-01  0.000e+00  0.000e+00 dc   
  vrwl  rwl               0                  0.000e+00  0.000e+00  0.000e+00 pwl  
                time        value

                 0.000e+00    0.000e+00
                 1.250e-08    0.000e+00
                 1.260e-08    9.000e-01
                 1.500e-08    9.000e-01
                 1.510e-08    0.000e+00
                 2.250e-08    0.000e+00
                 2.260e-08    9.000e-01
                 2.500e-08    9.000e-01
                 2.510e-08    0.000e+00
                 3.250e-08    0.000e+00
                 3.260e-08    9.000e-01
                 3.500e-08    9.000e-01


  vrwlb  rwlb              0                  9.000e-01  0.000e+00  0.000e+00 pwl  
                time        value

                 0.000e+00    9.000e-01
                 1.250e-08    9.000e-01
                 1.260e-08    0.000e+00
                 1.500e-08    0.000e+00
                 1.510e-08    9.000e-01
                 2.250e-08    9.000e-01
                 2.260e-08    0.000e+00
                 2.500e-08    0.000e+00
                 2.510e-08    9.000e-01
                 3.250e-08    9.000e-01
                 3.260e-08    0.000e+00
                 3.500e-08    0.000e+00


  vwbl  wbl               0                  0.000e+00  0.000e+00  0.000e+00 pwl  
                time        value

                 0.000e+00    0.000e+00
                 5.000e-09    0.000e+00
                 5.100e-09    4.500e-01
                 1.000e-08    4.500e-01
                 1.010e-08    0.000e+00
                 1.500e-08    0.000e+00
                 1.510e-08    9.000e-01
                 2.000e-08    9.000e-01
                 2.010e-08    0.000e+00
                 3.000e-08    0.000e+00
                 4.000e-08    0.000e+00


  vwwl  wwl               0                  0.000e+00  0.000e+00  0.000e+00 pwl  
                time        value

                 0.000e+00    0.000e+00
                 7.500e-09    0.000e+00
                 7.600e-09    9.000e-01
                 1.000e-08    9.000e-01
                 1.010e-08    0.000e+00
                 1.750e-08    0.000e+00
                 1.760e-08    9.000e-01
                 2.000e-08    9.000e-01
                 2.010e-08    0.000e+00
                 2.750e-08    0.000e+00
                 2.760e-08    9.000e-01
                 3.000e-08    9.000e-01
                 3.010e-08    0.000e+00
                 4.000e-08    0.000e+00


  vwwlb  wwlb              0                  9.000e-01  0.000e+00  0.000e+00 pwl  
                time        value

                 0.000e+00    9.000e-01
                 7.500e-09    9.000e-01
                 7.600e-09    0.000e+00
                 1.000e-08    0.000e+00
                 1.010e-08    9.000e-01
                 1.750e-08    9.000e-01
                 1.760e-08    0.000e+00
                 2.000e-08    0.000e+00
                 2.010e-08    9.000e-01
                 2.750e-08    9.000e-01
                 2.760e-08    0.000e+00
                 3.000e-08    0.000e+00
                 3.010e-08    9.000e-01
                 4.000e-08    9.000e-01




 **** subcircuit calls
    name        subcircuit         external nodes


         0:xcnt7    pcnfet          0:vdd         0:q           0:n2      
                               0:n2      


         0:xcnt8    pcnfet          0:vdd         0:q           0:qb      
                               0:qb      


         0:xcnt6    pcnfet          0:qb          0:qb          0:n2      
                               0:n2      


         0:xcnt5    ncnfet          0:qb          0:qb          0:n1      
                               0:n1      


         0:xcnt3    ncnfet          0:n1          0:q           0:0       
                               0:0       


         0:xcnt4    ncnfet          0:qb          0:q           0:0       
                               0:0       


         0:xcnt14   pcnfet          0:vdd         0:qb          0:q       
                               0:q       


         0:xcnt13   pcnfet          0:vdd         0:qb          0:n4      
                               0:n4      


         0:xcnt12   pcnfet          0:q           0:q           0:n4      
                               0:n4      


         0:xcnt11   ncnfet          0:q           0:q           0:n3      
                               0:n3      


         0:xcnt10   ncnfet          0:q           0:qb          0:0       
                               0:0       


         0:xcnt9    ncnfet          0:n3          0:qb          0:0       
                               0:0       


         0:xcnt2    pcnfet          0:q           0:wwlb        0:wbl     
                               0:wbl     


         0:xcnt1    ncnfet          0:wbl         0:wwl         0:q       
                               0:q       


         0:xcnt18   pcnfet          0:rbl         0:rwlb        0:q       
                               0:q       


         0:xcnt17   ncnfet          0:q           0:rwl         0:rbl     
                               0:rbl     


  
1****** HSPICE -- H-2013.03 64-BIT (Mar  7 2013) win64 ******                   
 ******  
 'inverter'

  ******  element node table
                                                                                      
 0                vdd              vrwl             vrwlb            vwbl             
                  vwwl             vwwlb                                              
 rwl              vrwl                                                                
 rwlb             vrwlb                                                               
 vdd              vdd                                                                 
 wbl              vwbl                                                                
 wwl              vwwl                                                                
 wwlb             vwwlb                                                               
  **warning** PIVOT option setting is simplified, pivot = 13 is obsolete,
              automatically switch to pivot = 1.
 *****************************************************************
 ******  option summary
 ******
 runlvl  = 3         bypass  = 2         
  Opening plot unit= 79
 file=sram10nmtry.pa0

1****** HSPICE -- H-2013.03 64-BIT (Mar  7 2013) win64 ******                   
 ******  
 'inverter'

  ******  operating point information tnom=  25.000 temp=  25.000 *****
 ***** operating point status is voltage   simulation time is   0.000e+00
     node    =voltage       node    =voltage       node    =voltage

 + 0:n1      = 2.455e-02  0:n2      = 8.776e-01  0:n3      = 2.374e-02
 + 0:n4      = 8.768e-01  0:q       = 4.519e-01  0:qb      = 4.535e-01
 + 0:rbl     = 4.876e-03  0:rwl     = 0.000e+00  0:rwlb    = 9.000e-01
 + 0:vdd     = 9.000e-01  0:wbl     = 0.000e+00  0:wwl     = 0.000e+00
 + 0:wwlb    = 9.000e-01

 ******  
 'inverter'

  ******  transient analysis tnom=  25.000 temp=  25.000 *****
x

        time    voltage      voltage      voltage      voltage    
                     q           qb           rwl         rwlb    
  0.0000e+00    4.519e-01    4.535e-01    0.000e+00    9.000e-01  
  1.0000e-10    4.519e-01    4.535e-01    0.000e+00    9.000e-01  
  2.0000e-10    4.519e-01    4.535e-01    0.000e+00    9.000e-01  
  3.0000e-10    4.519e-01    4.535e-01    0.000e+00    9.000e-01  
  4.0000e-10    4.519e-01    4.535e-01    0.000e+00    9.000e-01  
  5.0000e-10    4.519e-01    4.535e-01    0.000e+00    9.000e-01  
  6.0000e-10    4.519e-01    4.535e-01    0.000e+00    9.000e-01  
  7.0000e-10    4.519e-01    4.535e-01    0.000e+00    9.000e-01  
  8.0000e-10    4.519e-01    4.535e-01    0.000e+00    9.000e-01  
  9.0000e-10    4.519e-01    4.535e-01    0.000e+00    9.000e-01  
  1.0000e-09    4.519e-01    4.535e-01    0.000e+00    9.000e-01  
  1.1000e-09    4.519e-01    4.535e-01    0.000e+00    9.000e-01  
  1.2000e-09    4.519e-01    4.535e-01    0.000e+00    9.000e-01  
  1.3000e-09    4.519e-01    4.535e-01    0.000e+00    9.000e-01  
  1.4000e-09    4.519e-01    4.535e-01    0.000e+00    9.000e-01  
  1.5000e-09    4.519e-01    4.535e-01    0.000e+00    9.000e-01  
  1.6000e-09    4.519e-01    4.535e-01    0.000e+00    9.000e-01  
  1.7000e-09    4.519e-01    4.535e-01    0.000e+00    9.000e-01  
  1.8000e-09    4.519e-01    4.535e-01    0.000e+00    9.000e-01  
  1.9000e-09    4.519e-01    4.535e-01    0.000e+00    9.000e-01  
  2.0000e-09    4.519e-01    4.535e-01    0.000e+00    9.000e-01  
  2.1000e-09    4.519e-01    4.535e-01    0.000e+00    9.000e-01  
  2.2000e-09    4.519e-01    4.535e-01    0.000e+00    9.000e-01  
  2.3000e-09    4.519e-01    4.535e-01    0.000e+00    9.000e-01  
  2.4000e-09    4.519e-01    4.535e-01    0.000e+00    9.000e-01  
  2.5000e-09    4.519e-01    4.535e-01    0.000e+00    9.000e-01  
  2.6000e-09    4.519e-01    4.535e-01    0.000e+00    9.000e-01  
  2.7000e-09    4.519e-01    4.535e-01    0.000e+00    9.000e-01  
  2.8000e-09    4.519e-01    4.535e-01    0.000e+00    9.000e-01  
  2.9000e-09    4.519e-01    4.535e-01    0.000e+00    9.000e-01  
  3.0000e-09    4.519e-01    4.535e-01    0.000e+00    9.000e-01  
  3.1000e-09    4.519e-01    4.535e-01    0.000e+00    9.000e-01  
  3.2000e-09    4.519e-01    4.535e-01    0.000e+00    9.000e-01  
  3.3000e-09    4.519e-01    4.535e-01    0.000e+00    9.000e-01  
  3.4000e-09    4.519e-01    4.535e-01    0.000e+00    9.000e-01  
  3.5000e-09    4.519e-01    4.535e-01    0.000e+00    9.000e-01  
  3.6000e-09    4.519e-01    4.535e-01    0.000e+00    9.000e-01  
  3.7000e-09    4.519e-01    4.535e-01    0.000e+00    9.000e-01  
  3.8000e-09    4.519e-01    4.535e-01    0.000e+00    9.000e-01  
  3.9000e-09    4.519e-01    4.535e-01    0.000e+00    9.000e-01  
  4.0000e-09    4.519e-01    4.535e-01    0.000e+00    9.000e-01  
  4.1000e-09    4.519e-01    4.535e-01    0.000e+00    9.000e-01  
  4.2000e-09    4.519e-01    4.535e-01    0.000e+00    9.000e-01  
  4.3000e-09    4.519e-01    4.535e-01    0.000e+00    9.000e-01  
  4.4000e-09    4.519e-01    4.535e-01    0.000e+00    9.000e-01  
  4.5000e-09    4.519e-01    4.535e-01    0.000e+00    9.000e-01  
  4.6000e-09    4.519e-01    4.535e-01    0.000e+00    9.000e-01  
  4.7000e-09    4.519e-01    4.535e-01    0.000e+00    9.000e-01  
  4.8000e-09    4.519e-01    4.535e-01    0.000e+00    9.000e-01  
  4.9000e-09    4.519e-01    4.535e-01    0.000e+00    9.000e-01  
  5.0000e-09    4.519e-01    4.535e-01    0.000e+00    9.000e-01  
  5.1000e-09    4.951e-01    4.582e-01    0.000e+00    9.000e-01  
  5.2000e-09    4.800e-01    4.464e-01    0.000e+00    9.000e-01  
  5.3000e-09    4.726e-01    4.436e-01    0.000e+00    9.000e-01  
  5.4000e-09    4.683e-01    4.434e-01    0.000e+00    9.000e-01  
  5.5000e-09    4.647e-01    4.439e-01    0.000e+00    9.000e-01  
  5.6000e-09    4.629e-01    4.450e-01    0.000e+00    9.000e-01  
  5.7000e-09    4.610e-01    4.462e-01    0.000e+00    9.000e-01  
  5.8000e-09    4.594e-01    4.473e-01    0.000e+00    9.000e-01  
  5.9000e-09    4.586e-01    4.480e-01    0.000e+00    9.000e-01  
  6.0000e-09    4.578e-01    4.487e-01    0.000e+00    9.000e-01  
  6.1000e-09    4.570e-01    4.494e-01    0.000e+00    9.000e-01  
  6.2000e-09    4.562e-01    4.501e-01    0.000e+00    9.000e-01  
  6.3000e-09    4.554e-01    4.509e-01    0.000e+00    9.000e-01  
  6.4000e-09    4.549e-01    4.513e-01    0.000e+00    9.000e-01  
  6.5000e-09    4.546e-01    4.515e-01    0.000e+00    9.000e-01  
  6.6000e-09    4.544e-01    4.517e-01    0.000e+00    9.000e-01  
  6.7000e-09    4.542e-01    4.519e-01    0.000e+00    9.000e-01  
  6.8000e-09    4.540e-01    4.521e-01    0.000e+00    9.000e-01  
  6.9000e-09    4.538e-01    4.523e-01    0.000e+00    9.000e-01  
  7.0000e-09    4.536e-01    4.524e-01    0.000e+00    9.000e-01  
  7.1000e-09    4.534e-01    4.526e-01    0.000e+00    9.000e-01  
  7.2000e-09    4.532e-01    4.528e-01    0.000e+00    9.000e-01  
  7.3000e-09    4.531e-01    4.529e-01    0.000e+00    9.000e-01  
  7.4000e-09    4.530e-01    4.529e-01    0.000e+00    9.000e-01  
  7.5000e-09    4.530e-01    4.530e-01    0.000e+00    9.000e-01  
  7.6000e-09    4.879e-01    4.551e-01    0.000e+00    9.000e-01  
  7.7000e-09    4.598e-01    4.456e-01    0.000e+00    9.000e-01  
  7.8000e-09    4.537e-01    4.471e-01    0.000e+00    9.000e-01  
  7.9000e-09    4.519e-01    4.492e-01    0.000e+00    9.000e-01  
  8.0000e-09    4.513e-01    4.510e-01    0.000e+00    9.000e-01  
  8.1000e-09    4.510e-01    4.519e-01    0.000e+00    9.000e-01  
  8.2000e-09    4.509e-01    4.527e-01    0.000e+00    9.000e-01  
  8.3000e-09    4.507e-01    4.534e-01    0.000e+00    9.000e-01  
  8.4000e-09    4.507e-01    4.536e-01    0.000e+00    9.000e-01  
  8.5000e-09    4.507e-01    4.538e-01    0.000e+00    9.000e-01  
  8.6000e-09    4.506e-01    4.539e-01    0.000e+00    9.000e-01  
  8.7000e-09    4.506e-01    4.541e-01    0.000e+00    9.000e-01  
  8.8000e-09    4.505e-01    4.542e-01    0.000e+00    9.000e-01  
  8.9000e-09    4.505e-01    4.543e-01    0.000e+00    9.000e-01  
  9.0000e-09    4.505e-01    4.543e-01    0.000e+00    9.000e-01  
  9.1000e-09    4.505e-01    4.543e-01    0.000e+00    9.000e-01  
  9.2000e-09    4.505e-01    4.543e-01    0.000e+00    9.000e-01  
  9.3000e-09    4.505e-01    4.543e-01    0.000e+00    9.000e-01  
  9.4000e-09    4.505e-01    4.543e-01    0.000e+00    9.000e-01  
  9.5000e-09    4.505e-01    4.542e-01    0.000e+00    9.000e-01  
  9.6000e-09    4.505e-01    4.542e-01    0.000e+00    9.000e-01  
  9.7000e-09    4.506e-01    4.542e-01    0.000e+00    9.000e-01  
  9.8000e-09    4.506e-01    4.542e-01    0.000e+00    9.000e-01  
  9.9000e-09    4.506e-01    4.542e-01    0.000e+00    9.000e-01  
  1.0000e-08    4.505e-01    4.542e-01    0.000e+00    9.000e-01  
  1.0100e-08    3.602e-01    4.548e-01    0.000e+00    9.000e-01  
  1.0200e-08    3.889e-01    4.868e-01    0.000e+00    9.000e-01  
  1.0300e-08    4.016e-01    4.935e-01    0.000e+00    9.000e-01  
  1.0400e-08    4.096e-01    4.929e-01    0.000e+00    9.000e-01  
  1.0500e-08    4.153e-01    4.894e-01    0.000e+00    9.000e-01  
  1.0600e-08    4.206e-01    4.853e-01    0.000e+00    9.000e-01  
  1.0700e-08    4.247e-01    4.813e-01    0.000e+00    9.000e-01  
  1.0800e-08    4.284e-01    4.773e-01    0.000e+00    9.000e-01  
  1.0900e-08    4.321e-01    4.733e-01    0.000e+00    9.000e-01  
  1.1000e-08    4.351e-01    4.701e-01    0.000e+00    9.000e-01  
  1.1100e-08    4.372e-01    4.679e-01    0.000e+00    9.000e-01  
  1.1200e-08    4.393e-01    4.658e-01    0.000e+00    9.000e-01  
  1.1300e-08    4.414e-01    4.636e-01    0.000e+00    9.000e-01  
  1.1400e-08    4.435e-01    4.615e-01    0.000e+00    9.000e-01  
  1.1500e-08    4.454e-01    4.596e-01    0.000e+00    9.000e-01  
  1.1600e-08    4.460e-01    4.590e-01    0.000e+00    9.000e-01  
  1.1700e-08    4.466e-01    4.584e-01    0.000e+00    9.000e-01  
  1.1800e-08    4.473e-01    4.578e-01    0.000e+00    9.000e-01  
  1.1900e-08    4.479e-01    4.572e-01    0.000e+00    9.000e-01  
  1.2000e-08    4.486e-01    4.566e-01    0.000e+00    9.000e-01  
  1.2100e-08    4.492e-01    4.561e-01    0.000e+00    9.000e-01  
  1.2200e-08    4.498e-01    4.555e-01    0.000e+00    9.000e-01  
  1.2300e-08    4.505e-01    4.549e-01    0.000e+00    9.000e-01  
  1.2400e-08    4.511e-01    4.543e-01    0.000e+00    9.000e-01  
  1.2500e-08    4.518e-01    4.537e-01    0.000e+00    9.000e-01  
  1.2600e-08    4.497e-01    4.535e-01    9.000e-01    0.000e+00  
  1.2700e-08    4.471e-01    4.542e-01    9.000e-01    0.000e+00  
  1.2800e-08    4.483e-01    4.550e-01    9.000e-01    0.000e+00  
  1.2900e-08    4.491e-01    4.552e-01    9.000e-01    0.000e+00  
  1.3000e-08    4.496e-01    4.551e-01    9.000e-01    0.000e+00  
  1.3100e-08    4.500e-01    4.550e-01    9.000e-01    0.000e+00  
  1.3200e-08    4.504e-01    4.548e-01    9.000e-01    0.000e+00  
  1.3300e-08    4.506e-01    4.547e-01    9.000e-01    0.000e+00  
  1.3400e-08    4.507e-01    4.546e-01    9.000e-01    0.000e+00  
  1.3500e-08    4.509e-01    4.545e-01    9.000e-01    0.000e+00  
  1.3600e-08    4.510e-01    4.543e-01    9.000e-01    0.000e+00  
  1.3700e-08    4.512e-01    4.542e-01    9.000e-01    0.000e+00  
  1.3800e-08    4.513e-01    4.541e-01    9.000e-01    0.000e+00  
  1.3900e-08    4.514e-01    4.539e-01    9.000e-01    0.000e+00  
  1.4000e-08    4.516e-01    4.538e-01    9.000e-01    0.000e+00  
  1.4100e-08    4.516e-01    4.538e-01    9.000e-01    0.000e+00  
  1.4200e-08    4.517e-01    4.537e-01    9.000e-01    0.000e+00  
  1.4300e-08    4.517e-01    4.537e-01    9.000e-01    0.000e+00  
  1.4400e-08    4.517e-01    4.537e-01    9.000e-01    0.000e+00  
  1.4500e-08    4.518e-01    4.537e-01    9.000e-01    0.000e+00  
  1.4600e-08    4.518e-01    4.536e-01    9.000e-01    0.000e+00  
  1.4700e-08    4.518e-01    4.536e-01    9.000e-01    0.000e+00  
  1.4800e-08    4.518e-01    4.536e-01    9.000e-01    0.000e+00  
  1.4900e-08    4.519e-01    4.536e-01    9.000e-01    0.000e+00  
  1.5000e-08    4.519e-01    4.536e-01    9.000e-01    0.000e+00  
  1.5100e-08    5.485e-01    4.601e-01    0.000e+00    9.000e-01  
  1.5200e-08    5.175e-01    4.320e-01    0.000e+00    9.000e-01  
  1.5300e-08    5.032e-01    4.259e-01    0.000e+00    9.000e-01  
  1.5400e-08    4.934e-01    4.250e-01    0.000e+00    9.000e-01  
  1.5500e-08    4.867e-01    4.273e-01    0.000e+00    9.000e-01  
  1.5600e-08    4.813e-01    4.300e-01    0.000e+00    9.000e-01  
  1.5700e-08    4.771e-01    4.330e-01    0.000e+00    9.000e-01  
  1.5800e-08    4.729e-01    4.361e-01    0.000e+00    9.000e-01  
  1.5900e-08    4.697e-01    4.385e-01    0.000e+00    9.000e-01  
  1.6000e-08    4.674e-01    4.405e-01    0.000e+00    9.000e-01  
  1.6100e-08    4.652e-01    4.424e-01    0.000e+00    9.000e-01  
  1.6200e-08    4.629e-01    4.444e-01    0.000e+00    9.000e-01  
  1.6300e-08    4.606e-01    4.463e-01    0.000e+00    9.000e-01  
  1.6400e-08    4.597e-01    4.471e-01    0.000e+00    9.000e-01  
  1.6500e-08    4.589e-01    4.478e-01    0.000e+00    9.000e-01  
  1.6600e-08    4.582e-01    4.484e-01    0.000e+00    9.000e-01  
  1.6700e-08    4.574e-01    4.491e-01    0.000e+00    9.000e-01  
  1.6800e-08    4.566e-01    4.498e-01    0.000e+00    9.000e-01  
  1.6900e-08    4.559e-01    4.504e-01    0.000e+00    9.000e-01  
  1.7000e-08    4.551e-01    4.511e-01    0.000e+00    9.000e-01  
  1.7100e-08    4.544e-01    4.517e-01    0.000e+00    9.000e-01  
  1.7200e-08    4.536e-01    4.524e-01    0.000e+00    9.000e-01  
  1.7300e-08    4.535e-01    4.525e-01    0.000e+00    9.000e-01  
  1.7400e-08    4.534e-01    4.526e-01    0.000e+00    9.000e-01  
  1.7500e-08    4.533e-01    4.527e-01    0.000e+00    9.000e-01  
  1.7600e-08    8.781e-01    3.546e-01    0.000e+00    9.000e-01  
  1.7700e-08    8.999e-01    5.458e-02    0.000e+00    9.000e-01  
  1.7800e-08    8.999e-01    5.433e-02    0.000e+00    9.000e-01  
  1.7900e-08    9.000e-01    5.431e-02    0.000e+00    9.000e-01  
  1.8000e-08    8.999e-01    5.418e-02    0.000e+00    9.000e-01  
  1.8100e-08    9.001e-01    5.439e-02    0.000e+00    9.000e-01  
  1.8200e-08    9.001e-01    5.438e-02    0.000e+00    9.000e-01  
  1.8300e-08    9.000e-01    5.425e-02    0.000e+00    9.000e-01  
  1.8400e-08    8.998e-01    5.412e-02    0.000e+00    9.000e-01  
  1.8500e-08    8.999e-01    5.414e-02    0.000e+00    9.000e-01  
  1.8600e-08    9.000e-01    5.423e-02    0.000e+00    9.000e-01  
  1.8700e-08    9.000e-01    5.431e-02    0.000e+00    9.000e-01  
  1.8800e-08    9.001e-01    5.440e-02    0.000e+00    9.000e-01  
  1.8900e-08    9.001e-01    5.443e-02    0.000e+00    9.000e-01  
  1.9000e-08    9.001e-01    5.438e-02    0.000e+00    9.000e-01  
  1.9100e-08    9.001e-01    5.433e-02    0.000e+00    9.000e-01  
  1.9200e-08    9.000e-01    5.428e-02    0.000e+00    9.000e-01  
  1.9300e-08    9.000e-01    5.423e-02    0.000e+00    9.000e-01  
  1.9400e-08    8.999e-01    5.418e-02    0.000e+00    9.000e-01  
  1.9500e-08    8.999e-01    5.412e-02    0.000e+00    9.000e-01  
  1.9600e-08    8.998e-01    5.408e-02    0.000e+00    9.000e-01  
  1.9700e-08    8.999e-01    5.417e-02    0.000e+00    9.000e-01  
  1.9800e-08    9.000e-01    5.426e-02    0.000e+00    9.000e-01  
  1.9900e-08    9.001e-01    5.435e-02    0.000e+00    9.000e-01  
  2.0000e-08    9.002e-01    5.444e-02    0.000e+00    9.000e-01  
  2.0100e-08    8.330e-01    5.668e-02    0.000e+00    9.000e-01  
  2.0200e-08    8.201e-01    6.425e-02    0.000e+00    9.000e-01  
  2.0300e-08    8.202e-01    6.409e-02    0.000e+00    9.000e-01  
  2.0400e-08    8.201e-01    6.416e-02    0.000e+00    9.000e-01  
  2.0500e-08    8.201e-01    6.426e-02    0.000e+00    9.000e-01  
  2.0600e-08    8.201e-01    6.423e-02    0.000e+00    9.000e-01  
  2.0700e-08    8.201e-01    6.420e-02    0.000e+00    9.000e-01  
  2.0800e-08    8.201e-01    6.416e-02    0.000e+00    9.000e-01  
  2.0900e-08    8.201e-01    6.412e-02    0.000e+00    9.000e-01  
  2.1000e-08    8.202e-01    6.408e-02    0.000e+00    9.000e-01  
  2.1100e-08    8.201e-01    6.410e-02    0.000e+00    9.000e-01  
  2.1200e-08    8.201e-01    6.411e-02    0.000e+00    9.000e-01  
  2.1300e-08    8.201e-01    6.413e-02    0.000e+00    9.000e-01  
  2.1400e-08    8.201e-01    6.415e-02    0.000e+00    9.000e-01  
  2.1500e-08    8.201e-01    6.417e-02    0.000e+00    9.000e-01  
  2.1600e-08    8.201e-01    6.418e-02    0.000e+00    9.000e-01  
  2.1700e-08    8.201e-01    6.420e-02    0.000e+00    9.000e-01  
  2.1800e-08    8.201e-01    6.422e-02    0.000e+00    9.000e-01  
  2.1900e-08    8.201e-01    6.424e-02    0.000e+00    9.000e-01  
  2.2000e-08    8.201e-01    6.425e-02    0.000e+00    9.000e-01  
  2.2100e-08    8.201e-01    6.427e-02    0.000e+00    9.000e-01  
  2.2200e-08    8.201e-01    6.423e-02    0.000e+00    9.000e-01  
  2.2300e-08    8.201e-01    6.418e-02    0.000e+00    9.000e-01  
  2.2400e-08    8.201e-01    6.413e-02    0.000e+00    9.000e-01  
  2.2500e-08    8.202e-01    6.408e-02    0.000e+00    9.000e-01  
  2.2600e-08    8.178e-01    6.494e-02    9.000e-01    0.000e+00  
  2.2700e-08    8.201e-01    6.416e-02    9.000e-01    0.000e+00  
  2.2800e-08    8.201e-01    6.418e-02    9.000e-01    0.000e+00  
  2.2900e-08    8.201e-01    6.418e-02    9.000e-01    0.000e+00  
  2.3000e-08    8.201e-01    6.418e-02    9.000e-01    0.000e+00  
  2.3100e-08    8.201e-01    6.418e-02    9.000e-01    0.000e+00  
  2.3200e-08    8.201e-01    6.418e-02    9.000e-01    0.000e+00  
  2.3300e-08    8.201e-01    6.418e-02    9.000e-01    0.000e+00  
  2.3400e-08    8.201e-01    6.418e-02    9.000e-01    0.000e+00  
  2.3500e-08    8.201e-01    6.418e-02    9.000e-01    0.000e+00  
  2.3600e-08    8.201e-01    6.418e-02    9.000e-01    0.000e+00  
  2.3700e-08    8.201e-01    6.418e-02    9.000e-01    0.000e+00  
  2.3800e-08    8.201e-01    6.418e-02    9.000e-01    0.000e+00  
  2.3900e-08    8.201e-01    6.418e-02    9.000e-01    0.000e+00  
  2.4000e-08    8.201e-01    6.418e-02    9.000e-01    0.000e+00  
  2.4100e-08    8.201e-01    6.418e-02    9.000e-01    0.000e+00  
  2.4200e-08    8.201e-01    6.418e-02    9.000e-01    0.000e+00  
  2.4300e-08    8.201e-01    6.418e-02    9.000e-01    0.000e+00  
  2.4400e-08    8.201e-01    6.418e-02    9.000e-01    0.000e+00  
  2.4500e-08    8.201e-01    6.418e-02    9.000e-01    0.000e+00  
  2.4600e-08    8.201e-01    6.418e-02    9.000e-01    0.000e+00  
  2.4700e-08    8.201e-01    6.418e-02    9.000e-01    0.000e+00  
  2.4800e-08    8.201e-01    6.417e-02    9.000e-01    0.000e+00  
  2.4900e-08    8.201e-01    6.417e-02    9.000e-01    0.000e+00  
  2.5000e-08    8.201e-01    6.417e-02    9.000e-01    0.000e+00  
  2.5100e-08    8.208e-01    6.404e-02    0.000e+00    9.000e-01  
  2.5200e-08    8.201e-01    6.418e-02    0.000e+00    9.000e-01  
  2.5300e-08    8.201e-01    6.418e-02    0.000e+00    9.000e-01  
  2.5400e-08    8.201e-01    6.418e-02    0.000e+00    9.000e-01  
  2.5500e-08    8.201e-01    6.418e-02    0.000e+00    9.000e-01  
  2.5600e-08    8.201e-01    6.417e-02    0.000e+00    9.000e-01  
  2.5700e-08    8.201e-01    6.417e-02    0.000e+00    9.000e-01  
  2.5800e-08    8.201e-01    6.417e-02    0.000e+00    9.000e-01  
  2.5900e-08    8.201e-01    6.417e-02    0.000e+00    9.000e-01  
  2.6000e-08    8.201e-01    6.417e-02    0.000e+00    9.000e-01  
  2.6100e-08    8.201e-01    6.417e-02    0.000e+00    9.000e-01  
  2.6200e-08    8.201e-01    6.417e-02    0.000e+00    9.000e-01  
  2.6300e-08    8.201e-01    6.417e-02    0.000e+00    9.000e-01  
  2.6400e-08    8.201e-01    6.417e-02    0.000e+00    9.000e-01  
  2.6500e-08    8.201e-01    6.417e-02    0.000e+00    9.000e-01  
  2.6600e-08    8.201e-01    6.417e-02    0.000e+00    9.000e-01  
  2.6700e-08    8.201e-01    6.417e-02    0.000e+00    9.000e-01  
  2.6800e-08    8.201e-01    6.417e-02    0.000e+00    9.000e-01  
  2.6900e-08    8.201e-01    6.418e-02    0.000e+00    9.000e-01  
  2.7000e-08    8.201e-01    6.418e-02    0.000e+00    9.000e-01  
  2.7100e-08    8.201e-01    6.418e-02    0.000e+00    9.000e-01  
  2.7200e-08    8.201e-01    6.418e-02    0.000e+00    9.000e-01  
  2.7300e-08    8.201e-01    6.418e-02    0.000e+00    9.000e-01  
  2.7400e-08    8.201e-01    6.418e-02    0.000e+00    9.000e-01  
  2.7500e-08    8.201e-01    6.418e-02    0.000e+00    9.000e-01  
  2.7600e-08    5.609e-02    3.366e-01    0.000e+00    9.000e-01  
  2.7700e-08    2.750e-02    8.992e-01    0.000e+00    9.000e-01  
  2.7800e-08    2.741e-02    8.997e-01    0.000e+00    9.000e-01  
  2.7900e-08    2.739e-02    8.998e-01    0.000e+00    9.000e-01  
  2.8000e-08    2.738e-02    8.999e-01    0.000e+00    9.000e-01  
  2.8100e-08    2.738e-02    8.999e-01    0.000e+00    9.000e-01  
  2.8200e-08    2.738e-02    8.999e-01    0.000e+00    9.000e-01  
  2.8300e-08    2.738e-02    8.999e-01    0.000e+00    9.000e-01  
  2.8400e-08    2.738e-02    8.999e-01    0.000e+00    9.000e-01  
  2.8500e-08    2.737e-02    9.000e-01    0.000e+00    9.000e-01  
  2.8600e-08    2.737e-02    9.000e-01    0.000e+00    9.000e-01  
  2.8700e-08    2.737e-02    9.000e-01    0.000e+00    9.000e-01  
  2.8800e-08    2.737e-02    9.000e-01    0.000e+00    9.000e-01  
  2.8900e-08    2.737e-02    9.000e-01    0.000e+00    9.000e-01  
  2.9000e-08    2.737e-02    9.000e-01    0.000e+00    9.000e-01  
  2.9100e-08    2.737e-02    9.000e-01    0.000e+00    9.000e-01  
  2.9200e-08    2.737e-02    9.000e-01    0.000e+00    9.000e-01  
  2.9300e-08    2.737e-02    9.000e-01    0.000e+00    9.000e-01  
  2.9400e-08    2.737e-02    9.000e-01    0.000e+00    9.000e-01  
  2.9500e-08    2.737e-02    9.000e-01    0.000e+00    9.000e-01  
  2.9600e-08    2.737e-02    9.000e-01    0.000e+00    9.000e-01  
  2.9700e-08    2.737e-02    9.000e-01    0.000e+00    9.000e-01  
  2.9800e-08    2.737e-02    9.000e-01    0.000e+00    9.000e-01  
  2.9900e-08    2.737e-02    9.000e-01    0.000e+00    9.000e-01  
  3.0000e-08    2.737e-02    9.000e-01    0.000e+00    9.000e-01  
  3.0100e-08    5.226e-02    8.999e-01    0.000e+00    9.000e-01  
  3.0200e-08    5.431e-02    9.000e-01    0.000e+00    9.000e-01  
  3.0300e-08    5.429e-02    9.000e-01    0.000e+00    9.000e-01  
  3.0400e-08    5.427e-02    9.000e-01    0.000e+00    9.000e-01  
  3.0500e-08    5.425e-02    9.000e-01    0.000e+00    9.000e-01  
  3.0600e-08    5.425e-02    9.000e-01    0.000e+00    9.000e-01  
  3.0700e-08    5.425e-02    9.000e-01    0.000e+00    9.000e-01  
  3.0800e-08    5.425e-02    9.000e-01    0.000e+00    9.000e-01  
  3.0900e-08    5.426e-02    9.000e-01    0.000e+00    9.000e-01  
  3.1000e-08    5.426e-02    9.000e-01    0.000e+00    9.000e-01  
  3.1100e-08    5.426e-02    9.000e-01    0.000e+00    9.000e-01  
  3.1200e-08    5.426e-02    9.000e-01    0.000e+00    9.000e-01  
  3.1300e-08    5.427e-02    9.000e-01    0.000e+00    9.000e-01  
  3.1400e-08    5.427e-02    9.000e-01    0.000e+00    9.000e-01  
  3.1500e-08    5.427e-02    9.000e-01    0.000e+00    9.000e-01  
  3.1600e-08    5.426e-02    9.000e-01    0.000e+00    9.000e-01  
  3.1700e-08    5.426e-02    9.000e-01    0.000e+00    9.000e-01  
  3.1800e-08    5.426e-02    9.000e-01    0.000e+00    9.000e-01  
  3.1900e-08    5.426e-02    9.000e-01    0.000e+00    9.000e-01  
  3.2000e-08    5.426e-02    9.000e-01    0.000e+00    9.000e-01  
  3.2100e-08    5.426e-02    9.000e-01    0.000e+00    9.000e-01  
  3.2200e-08    5.425e-02    9.000e-01    0.000e+00    9.000e-01  
  3.2300e-08    5.425e-02    9.000e-01    0.000e+00    9.000e-01  
  3.2400e-08    5.425e-02    9.000e-01    0.000e+00    9.000e-01  
  3.2500e-08    5.425e-02    9.000e-01    0.000e+00    9.000e-01  
  3.2600e-08    5.913e-02    8.994e-01    9.000e-01    0.000e+00  
  3.2700e-08    5.419e-02    9.000e-01    9.000e-01    0.000e+00  
  3.2800e-08    5.432e-02    9.000e-01    9.000e-01    0.000e+00  
  3.2900e-08    5.428e-02    9.000e-01    9.000e-01    0.000e+00  
  3.3000e-08    5.424e-02    9.000e-01    9.000e-01    0.000e+00  
  3.3100e-08    5.423e-02    9.000e-01    9.000e-01    0.000e+00  
  3.3200e-08    5.424e-02    9.000e-01    9.000e-01    0.000e+00  
  3.3300e-08    5.426e-02    9.000e-01    9.000e-01    0.000e+00  
  3.3400e-08    5.428e-02    9.000e-01    9.000e-01    0.000e+00  
  3.3500e-08    5.429e-02    9.000e-01    9.000e-01    0.000e+00  
  3.3600e-08    5.431e-02    9.000e-01    9.000e-01    0.000e+00  
  3.3700e-08    5.431e-02    9.000e-01    9.000e-01    0.000e+00  
  3.3800e-08    5.430e-02    9.000e-01    9.000e-01    0.000e+00  
  3.3900e-08    5.430e-02    9.000e-01    9.000e-01    0.000e+00  
  3.4000e-08    5.429e-02    9.000e-01    9.000e-01    0.000e+00  
  3.4100e-08    5.428e-02    9.000e-01    9.000e-01    0.000e+00  
  3.4200e-08    5.427e-02    9.000e-01    9.000e-01    0.000e+00  
  3.4300e-08    5.427e-02    9.000e-01    9.000e-01    0.000e+00  
  3.4400e-08    5.426e-02    9.000e-01    9.000e-01    0.000e+00  
  3.4500e-08    5.425e-02    9.000e-01    9.000e-01    0.000e+00  
  3.4600e-08    5.424e-02    9.000e-01    9.000e-01    0.000e+00  
  3.4700e-08    5.423e-02    9.000e-01    9.000e-01    0.000e+00  
  3.4800e-08    5.423e-02    9.000e-01    9.000e-01    0.000e+00  
  3.4900e-08    5.422e-02    9.000e-01    9.000e-01    0.000e+00  
  3.5000e-08    5.421e-02    9.000e-01    9.000e-01    0.000e+00  
  3.5100e-08    5.422e-02    9.000e-01    9.000e-01    0.000e+00  
  3.5200e-08    5.422e-02    9.000e-01    9.000e-01    0.000e+00  
  3.5300e-08    5.423e-02    9.000e-01    9.000e-01    0.000e+00  
  3.5400e-08    5.423e-02    9.000e-01    9.000e-01    0.000e+00  
  3.5500e-08    5.424e-02    9.000e-01    9.000e-01    0.000e+00  
  3.5600e-08    5.424e-02    9.000e-01    9.000e-01    0.000e+00  
  3.5700e-08    5.424e-02    9.000e-01    9.000e-01    0.000e+00  
  3.5800e-08    5.425e-02    9.000e-01    9.000e-01    0.000e+00  
  3.5900e-08    5.425e-02    9.000e-01    9.000e-01    0.000e+00  
  3.6000e-08    5.426e-02    9.000e-01    9.000e-01    0.000e+00  
  3.6100e-08    5.426e-02    9.000e-01    9.000e-01    0.000e+00  
  3.6200e-08    5.426e-02    9.000e-01    9.000e-01    0.000e+00  
  3.6300e-08    5.426e-02    9.000e-01    9.000e-01    0.000e+00  
  3.6400e-08    5.426e-02    9.000e-01    9.000e-01    0.000e+00  
  3.6500e-08    5.426e-02    9.000e-01    9.000e-01    0.000e+00  
  3.6600e-08    5.426e-02    9.000e-01    9.000e-01    0.000e+00  
  3.6700e-08    5.426e-02    9.000e-01    9.000e-01    0.000e+00  
  3.6800e-08    5.426e-02    9.000e-01    9.000e-01    0.000e+00  
  3.6900e-08    5.426e-02    9.000e-01    9.000e-01    0.000e+00  
  3.7000e-08    5.426e-02    9.000e-01    9.000e-01    0.000e+00  
  3.7100e-08    5.426e-02    9.000e-01    9.000e-01    0.000e+00  
  3.7200e-08    5.426e-02    9.000e-01    9.000e-01    0.000e+00  
  3.7300e-08    5.426e-02    9.000e-01    9.000e-01    0.000e+00  
  3.7400e-08    5.426e-02    9.000e-01    9.000e-01    0.000e+00  
  3.7500e-08    5.426e-02    9.000e-01    9.000e-01    0.000e+00  
  3.7600e-08    5.426e-02    9.000e-01    9.000e-01    0.000e+00  
  3.7700e-08    5.427e-02    9.000e-01    9.000e-01    0.000e+00  
  3.7800e-08    5.427e-02    9.000e-01    9.000e-01    0.000e+00  
  3.7900e-08    5.427e-02    9.000e-01    9.000e-01    0.000e+00  
  3.8000e-08    5.427e-02    9.000e-01    9.000e-01    0.000e+00  
  3.8100e-08    5.427e-02    9.000e-01    9.000e-01    0.000e+00  
  3.8200e-08    5.427e-02    9.000e-01    9.000e-01    0.000e+00  
  3.8300e-08    5.427e-02    9.000e-01    9.000e-01    0.000e+00  
  3.8400e-08    5.427e-02    9.000e-01    9.000e-01    0.000e+00  
  3.8500e-08    5.427e-02    9.000e-01    9.000e-01    0.000e+00  
  3.8600e-08    5.427e-02    9.000e-01    9.000e-01    0.000e+00  
  3.8700e-08    5.427e-02    9.000e-01    9.000e-01    0.000e+00  
  3.8800e-08    5.427e-02    9.000e-01    9.000e-01    0.000e+00  
  3.8900e-08    5.427e-02    9.000e-01    9.000e-01    0.000e+00  
  3.9000e-08    5.427e-02    9.000e-01    9.000e-01    0.000e+00  
  3.9100e-08    5.427e-02    9.000e-01    9.000e-01    0.000e+00  
  3.9200e-08    5.427e-02    9.000e-01    9.000e-01    0.000e+00  
  3.9300e-08    5.427e-02    9.000e-01    9.000e-01    0.000e+00  
  3.9400e-08    5.427e-02    9.000e-01    9.000e-01    0.000e+00  
  3.9500e-08    5.426e-02    9.000e-01    9.000e-01    0.000e+00  
  3.9600e-08    5.426e-02    9.000e-01    9.000e-01    0.000e+00  
  3.9700e-08    5.426e-02    9.000e-01    9.000e-01    0.000e+00  
  3.9800e-08    5.426e-02    9.000e-01    9.000e-01    0.000e+00  
  3.9900e-08    5.426e-02    9.000e-01    9.000e-01    0.000e+00  
  4.0000e-08    5.426e-02    9.000e-01    9.000e-01    0.000e+00  
y
x

        time    voltage    
                    rbl    
  0.0000e+00    4.876e-03  
  1.0000e-10    4.876e-03  
  2.0000e-10    4.876e-03  
  3.0000e-10    4.876e-03  
  4.0000e-10    4.876e-03  
  5.0000e-10    4.876e-03  
  6.0000e-10    4.876e-03  
  7.0000e-10    4.876e-03  
  8.0000e-10    4.876e-03  
  9.0000e-10    4.876e-03  
  1.0000e-09    4.876e-03  
  1.1000e-09    4.876e-03  
  1.2000e-09    4.876e-03  
  1.3000e-09    4.876e-03  
  1.4000e-09    4.876e-03  
  1.5000e-09    4.876e-03  
  1.6000e-09    4.876e-03  
  1.7000e-09    4.876e-03  
  1.8000e-09    4.876e-03  
  1.9000e-09    4.876e-03  
  2.0000e-09    4.876e-03  
  2.1000e-09    4.876e-03  
  2.2000e-09    4.876e-03  
  2.3000e-09    4.876e-03  
  2.4000e-09    4.876e-03  
  2.5000e-09    4.876e-03  
  2.6000e-09    4.876e-03  
  2.7000e-09    4.876e-03  
  2.8000e-09    4.876e-03  
  2.9000e-09    4.876e-03  
  3.0000e-09    4.876e-03  
  3.1000e-09    4.876e-03  
  3.2000e-09    4.876e-03  
  3.3000e-09    4.876e-03  
  3.4000e-09    4.876e-03  
  3.5000e-09    4.876e-03  
  3.6000e-09    4.876e-03  
  3.7000e-09    4.876e-03  
  3.8000e-09    4.876e-03  
  3.9000e-09    4.876e-03  
  4.0000e-09    4.876e-03  
  4.1000e-09    4.876e-03  
  4.2000e-09    4.876e-03  
  4.3000e-09    4.876e-03  
  4.4000e-09    4.876e-03  
  4.5000e-09    4.876e-03  
  4.6000e-09    4.876e-03  
  4.7000e-09    4.876e-03  
  4.8000e-09    4.876e-03  
  4.9000e-09    4.876e-03  
  5.0000e-09    4.876e-03  
  5.1000e-09    3.390e-02  
  5.2000e-09    2.372e-02  
  5.3000e-09    1.877e-02  
  5.4000e-09    1.585e-02  
  5.5000e-09    1.343e-02  
  5.6000e-09    1.220e-02  
  5.7000e-09    1.096e-02  
  5.8000e-09    9.852e-03  
  5.9000e-09    9.311e-03  
  6.0000e-09    8.770e-03  
  6.1000e-09    8.229e-03  
  6.2000e-09    7.688e-03  
  6.3000e-09    7.147e-03  
  6.4000e-09    6.803e-03  
  6.5000e-09    6.661e-03  
  6.6000e-09    6.518e-03  
  6.7000e-09    6.376e-03  
  6.8000e-09    6.234e-03  
  6.9000e-09    6.091e-03  
  7.0000e-09    5.949e-03  
  7.1000e-09    5.807e-03  
  7.2000e-09    5.665e-03  
  7.3000e-09    5.586e-03  
  7.4000e-09    5.562e-03  
  7.5000e-09    5.538e-03  
  7.6000e-09    2.905e-02  
  7.7000e-09    1.011e-02  
  7.8000e-09    5.978e-03  
  7.9000e-09    4.809e-03  
  8.0000e-09    4.368e-03  
  8.1000e-09    4.225e-03  
  8.2000e-09    4.119e-03  
  8.3000e-09    4.023e-03  
  8.4000e-09    3.994e-03  
  8.5000e-09    3.966e-03  
  8.6000e-09    3.937e-03  
  8.7000e-09    3.909e-03  
  8.8000e-09    3.881e-03  
  8.9000e-09    3.875e-03  
  9.0000e-09    3.878e-03  
  9.1000e-09    3.881e-03  
  9.2000e-09    3.884e-03  
  9.3000e-09    3.887e-03  
  9.4000e-09    3.890e-03  
  9.5000e-09    3.893e-03  
  9.6000e-09    3.897e-03  
  9.7000e-09    3.900e-03  
  9.8000e-09    3.903e-03  
  9.9000e-09    3.899e-03  
  1.0000e-08    3.892e-03  
  1.0100e-08   -5.683e-02  
  1.0200e-08   -3.750e-02  
  1.0300e-08   -2.899e-02  
  1.0400e-08   -2.360e-02  
  1.0500e-08   -1.973e-02  
  1.0600e-08   -1.617e-02  
  1.0700e-08   -1.341e-02  
  1.0800e-08   -1.092e-02  
  1.0900e-08   -8.435e-03  
  1.1000e-08   -6.374e-03  
  1.1100e-08   -4.953e-03  
  1.1200e-08   -3.532e-03  
  1.1300e-08   -2.112e-03  
  1.1400e-08   -6.911e-04  
  1.1500e-08    5.376e-04  
  1.1600e-08    9.687e-04  
  1.1700e-08    1.400e-03  
  1.1800e-08    1.831e-03  
  1.1900e-08    2.262e-03  
  1.2000e-08    2.693e-03  
  1.2100e-08    3.124e-03  
  1.2200e-08    3.555e-03  
  1.2300e-08    3.986e-03  
  1.2400e-08    4.417e-03  
  1.2500e-08    4.848e-03  
  1.2600e-08    4.159e-01  
  1.2700e-08    4.467e-01  
  1.2800e-08    4.482e-01  
  1.2900e-08    4.491e-01  
  1.3000e-08    4.495e-01  
  1.3100e-08    4.499e-01  
  1.3200e-08    4.504e-01  
  1.3300e-08    4.505e-01  
  1.3400e-08    4.507e-01  
  1.3500e-08    4.508e-01  
  1.3600e-08    4.510e-01  
  1.3700e-08    4.511e-01  
  1.3800e-08    4.513e-01  
  1.3900e-08    4.514e-01  
  1.4000e-08    4.516e-01  
  1.4100e-08    4.516e-01  
  1.4200e-08    4.517e-01  
  1.4300e-08    4.517e-01  
  1.4400e-08    4.517e-01  
  1.4500e-08    4.517e-01  
  1.4600e-08    4.518e-01  
  1.4700e-08    4.518e-01  
  1.4800e-08    4.518e-01  
  1.4900e-08    4.518e-01  
  1.5000e-08    4.519e-01  
  1.5100e-08    2.210e-01  
  1.5200e-08    2.001e-01  
  1.5300e-08    1.904e-01  
  1.5400e-08    1.837e-01  
  1.5500e-08    1.792e-01  
  1.5600e-08    1.755e-01  
  1.5700e-08    1.726e-01  
  1.5800e-08    1.698e-01  
  1.5900e-08    1.676e-01  
  1.6000e-08    1.660e-01  
  1.6100e-08    1.645e-01  
  1.6200e-08    1.629e-01  
  1.6300e-08    1.613e-01  
  1.6400e-08    1.606e-01  
  1.6500e-08    1.601e-01  
  1.6600e-08    1.595e-01  
  1.6700e-08    1.590e-01  
  1.6800e-08    1.584e-01  
  1.6900e-08    1.579e-01  
  1.7000e-08    1.573e-01  
  1.7100e-08    1.568e-01  
  1.7200e-08    1.562e-01  
  1.7300e-08    1.561e-01  
  1.7400e-08    1.560e-01  
  1.7500e-08    1.559e-01  
  1.7600e-08    4.417e-01  
  1.7700e-08    4.562e-01  
  1.7800e-08    4.561e-01  
  1.7900e-08    4.560e-01  
  1.8000e-08    4.559e-01  
  1.8100e-08    4.559e-01  
  1.8200e-08    4.558e-01  
  1.8300e-08    4.556e-01  
  1.8400e-08    4.554e-01  
  1.8500e-08    4.553e-01  
  1.8600e-08    4.552e-01  
  1.8700e-08    4.552e-01  
  1.8800e-08    4.551e-01  
  1.8900e-08    4.550e-01  
  1.9000e-08    4.549e-01  
  1.9100e-08    4.548e-01  
  1.9200e-08    4.546e-01  
  1.9300e-08    4.545e-01  
  1.9400e-08    4.543e-01  
  1.9500e-08    4.542e-01  
  1.9600e-08    4.540e-01  
  1.9700e-08    4.540e-01  
  1.9800e-08    4.539e-01  
  1.9900e-08    4.539e-01  
  2.0000e-08    4.538e-01  
  2.0100e-08    4.085e-01  
  2.0200e-08    3.997e-01  
  2.0300e-08    3.997e-01  
  2.0400e-08    3.996e-01  
  2.0500e-08    3.994e-01  
  2.0600e-08    3.993e-01  
  2.0700e-08    3.993e-01  
  2.0800e-08    3.992e-01  
  2.0900e-08    3.991e-01  
  2.1000e-08    3.990e-01  
  2.1100e-08    3.989e-01  
  2.1200e-08    3.988e-01  
  2.1300e-08    3.987e-01  
  2.1400e-08    3.986e-01  
  2.1500e-08    3.985e-01  
  2.1600e-08    3.984e-01  
  2.1700e-08    3.982e-01  
  2.1800e-08    3.981e-01  
  2.1900e-08    3.980e-01  
  2.2000e-08    3.979e-01  
  2.2100e-08    3.978e-01  
  2.2200e-08    3.977e-01  
  2.2300e-08    3.977e-01  
  2.2400e-08    3.976e-01  
  2.2500e-08    3.975e-01  
  2.2600e-08    8.203e-01  
  2.2700e-08    8.201e-01  
  2.2800e-08    8.201e-01  
  2.2900e-08    8.201e-01  
  2.3000e-08    8.201e-01  
  2.3100e-08    8.201e-01  
  2.3200e-08    8.201e-01  
  2.3300e-08    8.201e-01  
  2.3400e-08    8.201e-01  
  2.3500e-08    8.201e-01  
  2.3600e-08    8.201e-01  
  2.3700e-08    8.201e-01  
  2.3800e-08    8.201e-01  
  2.3900e-08    8.201e-01  
  2.4000e-08    8.201e-01  
  2.4100e-08    8.201e-01  
  2.4200e-08    8.201e-01  
  2.4300e-08    8.201e-01  
  2.4400e-08    8.201e-01  
  2.4500e-08    8.201e-01  
  2.4600e-08    8.201e-01  
  2.4700e-08    8.201e-01  
  2.4800e-08    8.201e-01  
  2.4900e-08    8.201e-01  
  2.5000e-08    8.201e-01  
  2.5100e-08    6.924e-01  
  2.5200e-08    6.918e-01  
  2.5300e-08    6.916e-01  
  2.5400e-08    6.914e-01  
  2.5500e-08    6.913e-01  
  2.5600e-08    6.911e-01  
  2.5700e-08    6.909e-01  
  2.5800e-08    6.908e-01  
  2.5900e-08    6.906e-01  
  2.6000e-08    6.904e-01  
  2.6100e-08    6.902e-01  
  2.6200e-08    6.901e-01  
  2.6300e-08    6.899e-01  
  2.6400e-08    6.897e-01  
  2.6500e-08    6.896e-01  
  2.6600e-08    6.894e-01  
  2.6700e-08    6.892e-01  
  2.6800e-08    6.890e-01  
  2.6900e-08    6.889e-01  
  2.7000e-08    6.887e-01  
  2.7100e-08    6.885e-01  
  2.7200e-08    6.884e-01  
  2.7300e-08    6.882e-01  
  2.7400e-08    6.880e-01  
  2.7500e-08    6.878e-01  
  2.7600e-08    1.737e-01  
  2.7700e-08    1.544e-01  
  2.7800e-08    1.543e-01  
  2.7900e-08    1.543e-01  
  2.8000e-08    1.542e-01  
  2.8100e-08    1.542e-01  
  2.8200e-08    1.541e-01  
  2.8300e-08    1.541e-01  
  2.8400e-08    1.541e-01  
  2.8500e-08    1.540e-01  
  2.8600e-08    1.540e-01  
  2.8700e-08    1.539e-01  
  2.8800e-08    1.539e-01  
  2.8900e-08    1.539e-01  
  2.9000e-08    1.538e-01  
  2.9100e-08    1.538e-01  
  2.9200e-08    1.537e-01  
  2.9300e-08    1.537e-01  
  2.9400e-08    1.537e-01  
  2.9500e-08    1.536e-01  
  2.9600e-08    1.536e-01  
  2.9700e-08    1.535e-01  
  2.9800e-08    1.535e-01  
  2.9900e-08    1.535e-01  
  3.0000e-08    1.534e-01  
  3.0100e-08    1.701e-01  
  3.0200e-08    1.715e-01  
  3.0300e-08    1.714e-01  
  3.0400e-08    1.713e-01  
  3.0500e-08    1.713e-01  
  3.0600e-08    1.712e-01  
  3.0700e-08    1.712e-01  
  3.0800e-08    1.712e-01  
  3.0900e-08    1.711e-01  
  3.1000e-08    1.711e-01  
  3.1100e-08    1.710e-01  
  3.1200e-08    1.710e-01  
  3.1300e-08    1.710e-01  
  3.1400e-08    1.709e-01  
  3.1500e-08    1.709e-01  
  3.1600e-08    1.708e-01  
  3.1700e-08    1.708e-01  
  3.1800e-08    1.707e-01  
  3.1900e-08    1.707e-01  
  3.2000e-08    1.707e-01  
  3.2100e-08    1.706e-01  
  3.2200e-08    1.706e-01  
  3.2300e-08    1.705e-01  
  3.2400e-08    1.705e-01  
  3.2500e-08    1.704e-01  
  3.2600e-08    6.093e-02  
  3.2700e-08    5.421e-02  
  3.2800e-08    5.430e-02  
  3.2900e-08    5.428e-02  
  3.3000e-08    5.426e-02  
  3.3100e-08    5.425e-02  
  3.3200e-08    5.426e-02  
  3.3300e-08    5.426e-02  
  3.3400e-08    5.427e-02  
  3.3500e-08    5.428e-02  
  3.3600e-08    5.429e-02  
  3.3700e-08    5.429e-02  
  3.3800e-08    5.429e-02  
  3.3900e-08    5.428e-02  
  3.4000e-08    5.428e-02  
  3.4100e-08    5.427e-02  
  3.4200e-08    5.427e-02  
  3.4300e-08    5.426e-02  
  3.4400e-08    5.426e-02  
  3.4500e-08    5.426e-02  
  3.4600e-08    5.425e-02  
  3.4700e-08    5.425e-02  
  3.4800e-08    5.424e-02  
  3.4900e-08    5.424e-02  
  3.5000e-08    5.423e-02  
  3.5100e-08    5.424e-02  
  3.5200e-08    5.424e-02  
  3.5300e-08    5.424e-02  
  3.5400e-08    5.424e-02  
  3.5500e-08    5.425e-02  
  3.5600e-08    5.425e-02  
  3.5700e-08    5.425e-02  
  3.5800e-08    5.425e-02  
  3.5900e-08    5.426e-02  
  3.6000e-08    5.426e-02  
  3.6100e-08    5.426e-02  
  3.6200e-08    5.426e-02  
  3.6300e-08    5.426e-02  
  3.6400e-08    5.426e-02  
  3.6500e-08    5.426e-02  
  3.6600e-08    5.426e-02  
  3.6700e-08    5.426e-02  
  3.6800e-08    5.426e-02  
  3.6900e-08    5.426e-02  
  3.7000e-08    5.426e-02  
  3.7100e-08    5.426e-02  
  3.7200e-08    5.426e-02  
  3.7300e-08    5.426e-02  
  3.7400e-08    5.426e-02  
  3.7500e-08    5.426e-02  
  3.7600e-08    5.426e-02  
  3.7700e-08    5.427e-02  
  3.7800e-08    5.427e-02  
  3.7900e-08    5.427e-02  
  3.8000e-08    5.427e-02  
  3.8100e-08    5.427e-02  
  3.8200e-08    5.427e-02  
  3.8300e-08    5.427e-02  
  3.8400e-08    5.427e-02  
  3.8500e-08    5.427e-02  
  3.8600e-08    5.427e-02  
  3.8700e-08    5.427e-02  
  3.8800e-08    5.427e-02  
  3.8900e-08    5.427e-02  
  3.9000e-08    5.427e-02  
  3.9100e-08    5.427e-02  
  3.9200e-08    5.427e-02  
  3.9300e-08    5.426e-02  
  3.9400e-08    5.426e-02  
  3.9500e-08    5.426e-02  
  3.9600e-08    5.426e-02  
  3.9700e-08    5.426e-02  
  3.9800e-08    5.426e-02  
  3.9900e-08    5.426e-02  
  4.0000e-08    5.426e-02  
y
-----------------------------------------------
x

        time    current    
                    vdd    
  0.0000e+00   -9.297e-09  
  1.0000e-10   -9.297e-09  
  2.0000e-10   -9.297e-09  
  3.0000e-10   -9.297e-09  
  4.0000e-10   -9.297e-09  
  5.0000e-10   -9.297e-09  
  6.0000e-10   -9.297e-09  
  7.0000e-10   -9.297e-09  
  8.0000e-10   -9.297e-09  
  9.0000e-10   -9.297e-09  
  1.0000e-09   -9.297e-09  
  1.1000e-09   -9.297e-09  
  1.2000e-09   -9.297e-09  
  1.3000e-09   -9.297e-09  
  1.4000e-09   -9.297e-09  
  1.5000e-09   -9.297e-09  
  1.6000e-09   -9.297e-09  
  1.7000e-09   -9.297e-09  
  1.8000e-09   -9.297e-09  
  1.9000e-09   -9.297e-09  
  2.0000e-09   -9.297e-09  
  2.1000e-09   -9.297e-09  
  2.2000e-09   -9.297e-09  
  2.3000e-09   -9.297e-09  
  2.4000e-09   -9.297e-09  
  2.5000e-09   -9.297e-09  
  2.6000e-09   -9.297e-09  
  2.7000e-09   -9.297e-09  
  2.8000e-09   -9.297e-09  
  2.9000e-09   -9.297e-09  
  3.0000e-09   -9.297e-09  
  3.1000e-09   -9.297e-09  
  3.2000e-09   -9.297e-09  
  3.3000e-09   -9.297e-09  
  3.4000e-09   -9.297e-09  
  3.5000e-09   -9.297e-09  
  3.6000e-09   -9.297e-09  
  3.7000e-09   -9.297e-09  
  3.8000e-09   -9.297e-09  
  3.9000e-09   -9.297e-09  
  4.0000e-09   -9.297e-09  
  4.1000e-09   -9.297e-09  
  4.2000e-09   -9.297e-09  
  4.3000e-09   -9.297e-09  
  4.4000e-09   -9.297e-09  
  4.5000e-09   -9.297e-09  
  4.6000e-09   -9.297e-09  
  4.7000e-09   -9.297e-09  
  4.8000e-09   -9.297e-09  
  4.9000e-09   -9.297e-09  
  5.0000e-09   -9.297e-09  
  5.1000e-09   -3.849e-09  
  5.2000e-09   -8.565e-09  
  5.3000e-09   -8.870e-09  
  5.4000e-09   -9.014e-09  
  5.5000e-09   -9.133e-09  
  5.6000e-09   -9.154e-09  
  5.7000e-09   -9.176e-09  
  5.8000e-09   -9.195e-09  
  5.9000e-09   -9.203e-09  
  6.0000e-09   -9.212e-09  
  6.1000e-09   -9.220e-09  
  6.2000e-09   -9.228e-09  
  6.3000e-09   -9.237e-09  
  6.4000e-09   -9.241e-09  
  6.5000e-09   -9.241e-09  
  6.6000e-09   -9.242e-09  
  6.7000e-09   -9.242e-09  
  6.8000e-09   -9.242e-09  
  6.9000e-09   -9.243e-09  
  7.0000e-09   -9.243e-09  
  7.1000e-09   -9.243e-09  
  7.2000e-09   -9.244e-09  
  7.3000e-09   -9.247e-09  
  7.4000e-09   -9.252e-09  
  7.5000e-09   -9.257e-09  
  7.6000e-09   -6.696e-09  
  7.7000e-09   -1.025e-08  
  7.8000e-09   -9.829e-09  
  7.9000e-09   -9.636e-09  
  8.0000e-09   -9.532e-09  
  8.1000e-09   -9.483e-09  
  8.2000e-09   -9.440e-09  
  8.3000e-09   -9.401e-09  
  8.4000e-09   -9.393e-09  
  8.5000e-09   -9.386e-09  
  8.6000e-09   -9.378e-09  
  8.7000e-09   -9.371e-09  
  8.8000e-09   -9.363e-09  
  8.9000e-09   -9.361e-09  
  9.0000e-09   -9.361e-09  
  9.1000e-09   -9.361e-09  
  9.2000e-09   -9.361e-09  
  9.3000e-09   -9.361e-09  
  9.4000e-09   -9.361e-09  
  9.5000e-09   -9.361e-09  
  9.6000e-09   -9.361e-09  
  9.7000e-09   -9.361e-09  
  9.8000e-09   -9.361e-09  
  9.9000e-09   -9.362e-09  
  1.0000e-08   -9.364e-09  
  1.0100e-08   -2.670e-08  
  1.0200e-08   -1.165e-08  
  1.0300e-08   -1.027e-08  
  1.0400e-08   -9.854e-09  
  1.0500e-08   -9.680e-09  
  1.0600e-08   -9.559e-09  
  1.0700e-08   -9.510e-09  
  1.0800e-08   -9.486e-09  
  1.0900e-08   -9.462e-09  
  1.1000e-08   -9.439e-09  
  1.1100e-08   -9.418e-09  
  1.1200e-08   -9.396e-09  
  1.1300e-08   -9.375e-09  
  1.1400e-08   -9.354e-09  
  1.1500e-08   -9.336e-09  
  1.1600e-08   -9.334e-09  
  1.1700e-08   -9.331e-09  
  1.1800e-08   -9.329e-09  
  1.1900e-08   -9.326e-09  
  1.2000e-08   -9.324e-09  
  1.2100e-08   -9.321e-09  
  1.2200e-08   -9.318e-09  
  1.2300e-08   -9.316e-09  
  1.2400e-08   -9.313e-09  
  1.2500e-08   -9.311e-09  
  1.2600e-08   -9.937e-09  
  1.2700e-08   -9.530e-09  
  1.2800e-08   -9.418e-09  
  1.2900e-08   -9.357e-09  
  1.3000e-08   -9.346e-09  
  1.3100e-08   -9.335e-09  
  1.3200e-08   -9.325e-09  
  1.3300e-08   -9.320e-09  
  1.3400e-08   -9.317e-09  
  1.3500e-08   -9.314e-09  
  1.3600e-08   -9.310e-09  
  1.3700e-08   -9.307e-09  
  1.3800e-08   -9.303e-09  
  1.3900e-08   -9.300e-09  
  1.4000e-08   -9.296e-09  
  1.4100e-08   -9.296e-09  
  1.4200e-08   -9.298e-09  
  1.4300e-08   -9.299e-09  
  1.4400e-08   -9.300e-09  
  1.4500e-08   -9.301e-09  
  1.4600e-08   -9.302e-09  
  1.4700e-08   -9.303e-09  
  1.4800e-08   -9.304e-09  
  1.4900e-08   -9.306e-09  
  1.5000e-08   -9.307e-09  
  1.5100e-08    9.091e-10  
  1.5200e-08   -8.283e-09  
  1.5300e-08   -8.642e-09  
  1.5400e-08   -8.885e-09  
  1.5500e-08   -8.991e-09  
  1.5600e-08   -9.060e-09  
  1.5700e-08   -9.094e-09  
  1.5800e-08   -9.127e-09  
  1.5900e-08   -9.147e-09  
  1.6000e-08   -9.155e-09  
  1.6100e-08   -9.164e-09  
  1.6200e-08   -9.173e-09  
  1.6300e-08   -9.182e-09  
  1.6400e-08   -9.190e-09  
  1.6500e-08   -9.198e-09  
  1.6600e-08   -9.206e-09  
  1.6700e-08   -9.214e-09  
  1.6800e-08   -9.223e-09  
  1.6900e-08   -9.231e-09  
  1.7000e-08   -9.239e-09  
  1.7100e-08   -9.247e-09  
  1.7200e-08   -9.255e-09  
  1.7300e-08   -9.250e-09  
  1.7400e-08   -9.245e-09  
  1.7500e-08   -9.240e-09  
  1.7600e-08   -3.583e-08  
  1.7700e-08   -2.024e-07  
  1.7800e-08   -2.022e-07  
  1.7900e-08   -2.022e-07  
  1.8000e-08   -2.021e-07  
  1.8100e-08   -2.023e-07  
  1.8200e-08   -2.023e-07  
  1.8300e-08   -2.022e-07  
  1.8400e-08   -2.020e-07  
  1.8500e-08   -2.020e-07  
  1.8600e-08   -2.022e-07  
  1.8700e-08   -2.023e-07  
  1.8800e-08   -2.024e-07  
  1.8900e-08   -2.024e-07  
  1.9000e-08   -2.024e-07  
  1.9100e-08   -2.023e-07  
  1.9200e-08   -2.022e-07  
  1.9300e-08   -2.021e-07  
  1.9400e-08   -2.021e-07  
  1.9500e-08   -2.020e-07  
  1.9600e-08   -2.019e-07  
  1.9700e-08   -2.021e-07  
  1.9800e-08   -2.022e-07  
  1.9900e-08   -2.023e-07  
  2.0000e-08   -2.025e-07  
  2.0100e-08   -3.852e-07  
  2.0200e-08   -3.386e-07  
  2.0300e-08   -3.392e-07  
  2.0400e-08   -3.389e-07  
  2.0500e-08   -3.386e-07  
  2.0600e-08   -3.387e-07  
  2.0700e-08   -3.388e-07  
  2.0800e-08   -3.389e-07  
  2.0900e-08   -3.391e-07  
  2.1000e-08   -3.392e-07  
  2.1100e-08   -3.392e-07  
  2.1200e-08   -3.391e-07  
  2.1300e-08   -3.390e-07  
  2.1400e-08   -3.390e-07  
  2.1500e-08   -3.389e-07  
  2.1600e-08   -3.389e-07  
  2.1700e-08   -3.388e-07  
  2.1800e-08   -3.387e-07  
  2.1900e-08   -3.387e-07  
  2.2000e-08   -3.386e-07  
  2.2100e-08   -3.385e-07  
  2.2200e-08   -3.387e-07  
  2.2300e-08   -3.388e-07  
  2.2400e-08   -3.390e-07  
  2.2500e-08   -3.392e-07  
  2.2600e-08   -3.381e-07  
  2.2700e-08   -3.389e-07  
  2.2800e-08   -3.389e-07  
  2.2900e-08   -3.389e-07  
  2.3000e-08   -3.389e-07  
  2.3100e-08   -3.389e-07  
  2.3200e-08   -3.389e-07  
  2.3300e-08   -3.389e-07  
  2.3400e-08   -3.389e-07  
  2.3500e-08   -3.389e-07  
  2.3600e-08   -3.389e-07  
  2.3700e-08   -3.389e-07  
  2.3800e-08   -3.389e-07  
  2.3900e-08   -3.389e-07  
  2.4000e-08   -3.389e-07  
  2.4100e-08   -3.388e-07  
  2.4200e-08   -3.388e-07  
  2.4300e-08   -3.388e-07  
  2.4400e-08   -3.388e-07  
  2.4500e-08   -3.388e-07  
  2.4600e-08   -3.389e-07  
  2.4700e-08   -3.389e-07  
  2.4800e-08   -3.389e-07  
  2.4900e-08   -3.389e-07  
  2.5000e-08   -3.389e-07  
  2.5100e-08   -3.386e-07  
  2.5200e-08   -3.389e-07  
  2.5300e-08   -3.389e-07  
  2.5400e-08   -3.389e-07  
  2.5500e-08   -3.389e-07  
  2.5600e-08   -3.389e-07  
  2.5700e-08   -3.389e-07  
  2.5800e-08   -3.389e-07  
  2.5900e-08   -3.389e-07  
  2.6000e-08   -3.389e-07  
  2.6100e-08   -3.389e-07  
  2.6200e-08   -3.389e-07  
  2.6300e-08   -3.389e-07  
  2.6400e-08   -3.389e-07  
  2.6500e-08   -3.389e-07  
  2.6600e-08   -3.389e-07  
  2.6700e-08   -3.389e-07  
  2.6800e-08   -3.389e-07  
  2.6900e-08   -3.389e-07  
  2.7000e-08   -3.389e-07  
  2.7100e-08   -3.389e-07  
  2.7200e-08   -3.389e-07  
  2.7300e-08   -3.389e-07  
  2.7400e-08   -3.389e-07  
  2.7500e-08   -3.389e-07  
  2.7600e-08   -6.161e-07  
  2.7700e-08   -4.162e-07  
  2.7800e-08   -4.142e-07  
  2.7900e-08   -4.146e-07  
  2.8000e-08   -4.138e-07  
  2.8100e-08   -4.136e-07  
  2.8200e-08   -4.140e-07  
  2.8300e-08   -4.143e-07  
  2.8400e-08   -4.139e-07  
  2.8500e-08   -4.136e-07  
  2.8600e-08   -4.133e-07  
  2.8700e-08   -4.133e-07  
  2.8800e-08   -4.135e-07  
  2.8900e-08   -4.137e-07  
  2.9000e-08   -4.139e-07  
  2.9100e-08   -4.141e-07  
  2.9200e-08   -4.143e-07  
  2.9300e-08   -4.142e-07  
  2.9400e-08   -4.140e-07  
  2.9500e-08   -4.139e-07  
  2.9600e-08   -4.137e-07  
  2.9700e-08   -4.136e-07  
  2.9800e-08   -4.134e-07  
  2.9900e-08   -4.133e-07  
  3.0000e-08   -4.131e-07  
  3.0100e-08   -2.130e-07  
  3.0200e-08   -2.023e-07  
  3.0300e-08   -2.022e-07  
  3.0400e-08   -2.023e-07  
  3.0500e-08   -2.023e-07  
  3.0600e-08   -2.023e-07  
  3.0700e-08   -2.023e-07  
  3.0800e-08   -2.022e-07  
  3.0900e-08   -2.022e-07  
  3.1000e-08   -2.022e-07  
  3.1100e-08   -2.022e-07  
  3.1200e-08   -2.022e-07  
  3.1300e-08   -2.022e-07  
  3.1400e-08   -2.022e-07  
  3.1500e-08   -2.022e-07  
  3.1600e-08   -2.022e-07  
  3.1700e-08   -2.022e-07  
  3.1800e-08   -2.022e-07  
  3.1900e-08   -2.022e-07  
  3.2000e-08   -2.022e-07  
  3.2100e-08   -2.022e-07  
  3.2200e-08   -2.023e-07  
  3.2300e-08   -2.023e-07  
  3.2400e-08   -2.023e-07  
  3.2500e-08   -2.023e-07  
  3.2600e-08   -1.844e-07  
  3.2700e-08   -2.025e-07  
  3.2800e-08   -2.020e-07  
  3.2900e-08   -2.022e-07  
  3.3000e-08   -2.024e-07  
  3.3100e-08   -2.025e-07  
  3.3200e-08   -2.024e-07  
  3.3300e-08   -2.023e-07  
  3.3400e-08   -2.022e-07  
  3.3500e-08   -2.021e-07  
  3.3600e-08   -2.020e-07  
  3.3700e-08   -2.020e-07  
  3.3800e-08   -2.020e-07  
  3.3900e-08   -2.021e-07  
  3.4000e-08   -2.021e-07  
  3.4100e-08   -2.021e-07  
  3.4200e-08   -2.022e-07  
  3.4300e-08   -2.022e-07  
  3.4400e-08   -2.023e-07  
  3.4500e-08   -2.023e-07  
  3.4600e-08   -2.023e-07  
  3.4700e-08   -2.024e-07  
  3.4800e-08   -2.024e-07  
  3.4900e-08   -2.024e-07  
  3.5000e-08   -2.025e-07  
  3.5100e-08   -2.025e-07  
  3.5200e-08   -2.024e-07  
  3.5300e-08   -2.024e-07  
  3.5400e-08   -2.024e-07  
  3.5500e-08   -2.023e-07  
  3.5600e-08   -2.023e-07  
  3.5700e-08   -2.023e-07  
  3.5800e-08   -2.023e-07  
  3.5900e-08   -2.022e-07  
  3.6000e-08   -2.022e-07  
  3.6100e-08   -2.022e-07  
  3.6200e-08   -2.022e-07  
  3.6300e-08   -2.022e-07  
  3.6400e-08   -2.022e-07  
  3.6500e-08   -2.022e-07  
  3.6600e-08   -2.022e-07  
  3.6700e-08   -2.022e-07  
  3.6800e-08   -2.022e-07  
  3.6900e-08   -2.022e-07  
  3.7000e-08   -2.022e-07  
  3.7100e-08   -2.022e-07  
  3.7200e-08   -2.022e-07  
  3.7300e-08   -2.022e-07  
  3.7400e-08   -2.022e-07  
  3.7500e-08   -2.022e-07  
  3.7600e-08   -2.022e-07  
  3.7700e-08   -2.022e-07  
  3.7800e-08   -2.022e-07  
  3.7900e-08   -2.022e-07  
  3.8000e-08   -2.022e-07  
  3.8100e-08   -2.022e-07  
  3.8200e-08   -2.022e-07  
  3.8300e-08   -2.022e-07  
  3.8400e-08   -2.022e-07  
  3.8500e-08   -2.022e-07  
  3.8600e-08   -2.022e-07  
  3.8700e-08   -2.022e-07  
  3.8800e-08   -2.022e-07  
  3.8900e-08   -2.022e-07  
  3.9000e-08   -2.022e-07  
  3.9100e-08   -2.022e-07  
  3.9200e-08   -2.022e-07  
  3.9300e-08   -2.022e-07  
  3.9400e-08   -2.022e-07  
  3.9500e-08   -2.022e-07  
  3.9600e-08   -2.022e-07  
  3.9700e-08   -2.022e-07  
  3.9800e-08   -2.022e-07  
  3.9900e-08   -2.022e-07  
  4.0000e-08   -2.022e-07  
y
-----------------------------------------------

          ***** job concluded
1****** HSPICE -- H-2013.03 64-BIT (Mar  7 2013) win64 ******                   
 ******  
 'inverter'

  ******  job statistics summary tnom=  25.000 temp=  25.000 *****

  ******  HSPICE Threads Information  ******

  Command Line Threads Count :     1
  Available CPU Count        :     4
  Actual Threads Count       :     1


  ******  Circuit Statistics  ******
  # nodes       =     462 # elements   =    1046
  # resistors   =     192 # capacitors =     464 # inductors   =       0
  # mutual_inds =       0 # vccs       =     128 # vcvs        =     224
  # cccs        =       0 # ccvs       =       0 # volt_srcs   =      38
  # curr_srcs   =       0 # diodes     =       0 # bjts        =       0
  # jfets       =       0 # mosfets    =       0 # U elements  =       0
  # T elements  =       0 # W elements =       0 # B elements  =       0
  # S elements  =       0 # P elements =       0 # va device   =       0
  # vector_srcs =       0 # N elements =       0


  ******  Runtime Statistics (seconds)  ******

  analysis           time    # points   tot. iter  conv.iter
  op point           2.47           1         124
  transient         16.96         401         905         249 rev=        25
  readin             0.06
  errchk             0.24
  setup              0.01
  output             0.00


           peak memory used         51.43 megabytes
           total cpu time           19.74 seconds
           total elapsed time       19.77 seconds
           job started at     23:46:37 02/28/2018
           job ended   at     23:46:57 02/28/2018


  lic: Release hspice token(s) 
 lic: total license checkout elapse time:        0.02(s)
